/*---------------------------------------------------------------------------*\
| =========                 |                                                 |
| \\      /  F ield         | OpenFOAM: The Open Source CFD Toolbox           |
|  \\    /   O peration     | Version:  2112                                  |
|   \\  /    A nd           | Website:  www.openfoam.com                      |
|    \\/     M anipulation  |                                                 |
\*---------------------------------------------------------------------------*/
Build  : _80318542-20220301 OPENFOAM=2112 patch=220310 version=2112
Arch   : "LSB;label=32;scalar=64"
Exec   : simpleFoam
Date   : Nov 02 2022
Time   : 19:02:02
Host   : DESKTOP-23DV0OJ
PID    : 4814
I/O    : uncollated
Case   : /home/pratik/squre_cylinder_60_40_theta_45
nProcs : 1
trapFpe: Floating point exception trapping enabled (FOAM_SIGFPE).
fileModificationChecking : Monitoring run-time modified files using timeStampMaster (fileModificationSkew 5, maxFileModificationPolls 20)
allowSystemOperations : Allowing user-supplied system call operations

// * * * * * * * * * * * * * * * * * * * * * * * * * * * * * * * * * * * * * //
Create time

Create mesh for time = 0


SIMPLE: convergence criteria
    field p	 tolerance 1e-05
    field U	 tolerance 1e-05
    field "(k|epsilon|omega|f|v2)"	 tolerance 1e-05

Reading field p

Reading field U

Reading/calculating face flux field phi

Selecting incompressible transport model Newtonian
Selecting turbulence model type laminar
Selecting laminar stress model Stokes
No MRF models present

No finite volume options present

Starting time loop

Time = 1

smoothSolver:  Solving for Ux, Initial residual = 1, Final residual = 0.075281116, No Iterations 2
smoothSolver:  Solving for Uy, Initial residual = 0.076980292, Final residual = 0.0011606479, No Iterations 2
GAMG:  Solving for p, Initial residual = 1, Final residual = 0.064113579, No Iterations 16
time step continuity errors : sum local = 0.0040661712, global = -0.00020059068, cumulative = -0.00020059068
ExecutionTime = 2.95 s  ClockTime = 4 s

Time = 2

smoothSolver:  Solving for Ux, Initial residual = 0.67044902, Final residual = 0.045171519, No Iterations 3
smoothSolver:  Solving for Uy, Initial residual = 0.25188755, Final residual = 0.018014497, No Iterations 3
GAMG:  Solving for p, Initial residual = 0.002182155, Final residual = 0.00021124605, No Iterations 14
time step continuity errors : sum local = 0.010014356, global = 0.0008003704, cumulative = 0.00059977972
ExecutionTime = 3.72 s  ClockTime = 4 s

Time = 3

smoothSolver:  Solving for Ux, Initial residual = 0.10825635, Final residual = 0.0069198291, No Iterations 3
smoothSolver:  Solving for Uy, Initial residual = 0.10297199, Final residual = 0.0072203072, No Iterations 3
GAMG:  Solving for p, Initial residual = 0.023890162, Final residual = 0.001995322, No Iterations 6
time step continuity errors : sum local = 0.0075843195, global = 0.00085766762, cumulative = 0.0014574473
ExecutionTime = 4.23 s  ClockTime = 5 s

Time = 4

smoothSolver:  Solving for Ux, Initial residual = 0.025320876, Final residual = 0.001510071, No Iterations 3
smoothSolver:  Solving for Uy, Initial residual = 0.074682062, Final residual = 0.0052125213, No Iterations 3
GAMG:  Solving for p, Initial residual = 0.091076505, Final residual = 0.0043557568, No Iterations 6
time step continuity errors : sum local = 0.0027117495, global = 0.00048607578, cumulative = 0.0019435231
ExecutionTime = 4.77 s  ClockTime = 6 s

Time = 5

smoothSolver:  Solving for Ux, Initial residual = 0.020933652, Final residual = 0.0012518979, No Iterations 3
smoothSolver:  Solving for Uy, Initial residual = 0.056527775, Final residual = 0.0038469866, No Iterations 3
GAMG:  Solving for p, Initial residual = 0.091991737, Final residual = 0.0073508726, No Iterations 3
time step continuity errors : sum local = 0.003217029, global = 0.00029790396, cumulative = 0.0022414271
ExecutionTime = 5.2 s  ClockTime = 6 s

Time = 6

smoothSolver:  Solving for Ux, Initial residual = 0.018760798, Final residual = 0.0011468233, No Iterations 3
smoothSolver:  Solving for Uy, Initial residual = 0.041256523, Final residual = 0.002764613, No Iterations 3
GAMG:  Solving for p, Initial residual = 0.071223356, Final residual = 0.0060686999, No Iterations 5
time step continuity errors : sum local = 0.0027483785, global = 0.0002559527, cumulative = 0.0024973798
ExecutionTime = 5.7 s  ClockTime = 6 s

Time = 7

smoothSolver:  Solving for Ux, Initial residual = 0.01108371, Final residual = 0.00064080044, No Iterations 3
smoothSolver:  Solving for Uy, Initial residual = 0.034272933, Final residual = 0.0022278495, No Iterations 3
GAMG:  Solving for p, Initial residual = 0.086809979, Final residual = 0.003686555, No Iterations 5
time step continuity errors : sum local = 0.0010456147, global = -0.000106892, cumulative = 0.0023904878
ExecutionTime = 6.19 s  ClockTime = 7 s

Time = 8

smoothSolver:  Solving for Ux, Initial residual = 0.007226075, Final residual = 0.00041442025, No Iterations 3
smoothSolver:  Solving for Uy, Initial residual = 0.034523567, Final residual = 0.002292855, No Iterations 3
GAMG:  Solving for p, Initial residual = 0.21987173, Final residual = 0.012036154, No Iterations 3
time step continuity errors : sum local = 0.0010777472, global = -0.0001539926, cumulative = 0.0022364952
ExecutionTime = 6.63 s  ClockTime = 7 s

Time = 9

smoothSolver:  Solving for Ux, Initial residual = 0.0062386466, Final residual = 0.00036523285, No Iterations 3
smoothSolver:  Solving for Uy, Initial residual = 0.029077806, Final residual = 0.0019129572, No Iterations 3
GAMG:  Solving for p, Initial residual = 0.16645113, Final residual = 0.010184344, No Iterations 3
time step continuity errors : sum local = 0.0009529081, global = -0.0001698472, cumulative = 0.002066648
ExecutionTime = 7.06 s  ClockTime = 8 s

Time = 10

smoothSolver:  Solving for Ux, Initial residual = 0.0056578088, Final residual = 0.00033924439, No Iterations 3
smoothSolver:  Solving for Uy, Initial residual = 0.027226409, Final residual = 0.0018130306, No Iterations 3
GAMG:  Solving for p, Initial residual = 0.12492241, Final residual = 0.0083393704, No Iterations 3
time step continuity errors : sum local = 0.00081802274, global = -0.00012874535, cumulative = 0.0019379026
ExecutionTime = 7.5 s  ClockTime = 8 s

Time = 11

smoothSolver:  Solving for Ux, Initial residual = 0.005309088, Final residual = 0.00032508202, No Iterations 3
smoothSolver:  Solving for Uy, Initial residual = 0.02444533, Final residual = 0.0016315618, No Iterations 3
GAMG:  Solving for p, Initial residual = 0.09207514, Final residual = 0.0067122295, No Iterations 3
time step continuity errors : sum local = 0.00070202437, global = -7.1030529e-05, cumulative = 0.0018668721
ExecutionTime = 7.95 s  ClockTime = 9 s

Time = 12

smoothSolver:  Solving for Ux, Initial residual = 0.0050776508, Final residual = 0.00032003435, No Iterations 3
smoothSolver:  Solving for Uy, Initial residual = 0.023293059, Final residual = 0.0015615002, No Iterations 3
GAMG:  Solving for p, Initial residual = 0.07229369, Final residual = 0.0048196585, No Iterations 3
time step continuity errors : sum local = 0.00049720179, global = -1.3285654e-05, cumulative = 0.0018535864
ExecutionTime = 8.39 s  ClockTime = 9 s

Time = 13

smoothSolver:  Solving for Ux, Initial residual = 0.0048233184, Final residual = 0.00030681111, No Iterations 3
smoothSolver:  Solving for Uy, Initial residual = 0.022219087, Final residual = 0.0015027562, No Iterations 3
GAMG:  Solving for p, Initial residual = 0.057904448, Final residual = 0.0049765368, No Iterations 3
time step continuity errors : sum local = 0.00048974657, global = 2.6292381e-05, cumulative = 0.0018798788
ExecutionTime = 8.83 s  ClockTime = 10 s

Time = 14

smoothSolver:  Solving for Ux, Initial residual = 0.0045826659, Final residual = 0.00029692195, No Iterations 3
smoothSolver:  Solving for Uy, Initial residual = 0.021342689, Final residual = 0.0014402292, No Iterations 3
GAMG:  Solving for p, Initial residual = 0.054231703, Final residual = 0.00317491, No Iterations 5
time step continuity errors : sum local = 0.00025665871, global = 2.1534004e-05, cumulative = 0.0019014128
ExecutionTime = 9.31 s  ClockTime = 10 s

Time = 15

smoothSolver:  Solving for Ux, Initial residual = 0.0042447139, Final residual = 0.00026695124, No Iterations 3
smoothSolver:  Solving for Uy, Initial residual = 0.021666435, Final residual = 0.0014830467, No Iterations 3
GAMG:  Solving for p, Initial residual = 0.21500822, Final residual = 0.01609234, No Iterations 3
time step continuity errors : sum local = 0.00025629, global = 7.4544663e-06, cumulative = 0.0019088673
ExecutionTime = 9.75 s  ClockTime = 11 s

Time = 16

smoothSolver:  Solving for Ux, Initial residual = 0.0041684848, Final residual = 0.00026798864, No Iterations 3
smoothSolver:  Solving for Uy, Initial residual = 0.020375628, Final residual = 0.0013837393, No Iterations 3
GAMG:  Solving for p, Initial residual = 0.19874085, Final residual = 0.014798017, No Iterations 5
time step continuity errors : sum local = 0.00020364961, global = -2.0301734e-05, cumulative = 0.0018885656
ExecutionTime = 10.23 s  ClockTime = 11 s

Time = 17

smoothSolver:  Solving for Ux, Initial residual = 0.0039365041, Final residual = 0.00025564697, No Iterations 3
smoothSolver:  Solving for Uy, Initial residual = 0.020216707, Final residual = 0.0013839319, No Iterations 3
GAMG:  Solving for p, Initial residual = 0.049287954, Final residual = 0.0033316187, No Iterations 3
time step continuity errors : sum local = 0.00014569505, global = -1.9740889e-05, cumulative = 0.0018688247
ExecutionTime = 10.7 s  ClockTime = 11 s

Time = 18

smoothSolver:  Solving for Ux, Initial residual = 0.003910461, Final residual = 0.00025862183, No Iterations 3
smoothSolver:  Solving for Uy, Initial residual = 0.019482362, Final residual = 0.0013272562, No Iterations 3
GAMG:  Solving for p, Initial residual = 0.039115583, Final residual = 0.0038405439, No Iterations 3
time step continuity errors : sum local = 0.00016896401, global = -2.1355898e-05, cumulative = 0.0018474688
ExecutionTime = 11.16 s  ClockTime = 12 s

Time = 19

smoothSolver:  Solving for Ux, Initial residual = 0.0037966269, Final residual = 0.00025145577, No Iterations 3
smoothSolver:  Solving for Uy, Initial residual = 0.01945121, Final residual = 0.0013326562, No Iterations 3
GAMG:  Solving for p, Initial residual = 0.030397135, Final residual = 0.0015071534, No Iterations 5
time step continuity errors : sum local = 6.9299759e-05, global = -6.8708203e-06, cumulative = 0.0018405979
ExecutionTime = 11.69 s  ClockTime = 12 s

Time = 20

smoothSolver:  Solving for Ux, Initial residual = 0.0038072453, Final residual = 0.00025636204, No Iterations 3
smoothSolver:  Solving for Uy, Initial residual = 0.018968527, Final residual = 0.0012963914, No Iterations 3
GAMG:  Solving for p, Initial residual = 0.021823874, Final residual = 0.0015538369, No Iterations 3
time step continuity errors : sum local = 7.9754247e-05, global = 9.6205338e-06, cumulative = 0.0018502185
ExecutionTime = 12.14 s  ClockTime = 13 s

Time = 21

smoothSolver:  Solving for Ux, Initial residual = 0.0037123384, Final residual = 0.00024974343, No Iterations 3
smoothSolver:  Solving for Uy, Initial residual = 0.018882985, Final residual = 0.0012958652, No Iterations 3
GAMG:  Solving for p, Initial residual = 0.018814373, Final residual = 0.0013459774, No Iterations 5
time step continuity errors : sum local = 6.7534746e-05, global = -5.1812742e-06, cumulative = 0.0018450372
ExecutionTime = 12.66 s  ClockTime = 13 s

Time = 22

smoothSolver:  Solving for Ux, Initial residual = 0.0036552479, Final residual = 0.00024673784, No Iterations 3
smoothSolver:  Solving for Uy, Initial residual = 0.018569696, Final residual = 0.0012710627, No Iterations 3
GAMG:  Solving for p, Initial residual = 0.01930537, Final residual = 0.0011097861, No Iterations 3
time step continuity errors : sum local = 4.5346923e-05, global = 3.2454756e-06, cumulative = 0.0018482827
ExecutionTime = 13.13 s  ClockTime = 14 s

Time = 23

smoothSolver:  Solving for Ux, Initial residual = 0.0035904324, Final residual = 0.00024247271, No Iterations 3
smoothSolver:  Solving for Uy, Initial residual = 0.018429099, Final residual = 0.0012648953, No Iterations 3
GAMG:  Solving for p, Initial residual = 0.0159401, Final residual = 0.0011548612, No Iterations 3
time step continuity errors : sum local = 4.6756139e-05, global = 3.2470968e-07, cumulative = 0.0018486074
ExecutionTime = 13.58 s  ClockTime = 14 s

Time = 24

smoothSolver:  Solving for Ux, Initial residual = 0.0035690696, Final residual = 0.0002425877, No Iterations 3
smoothSolver:  Solving for Uy, Initial residual = 0.018185289, Final residual = 0.0012461706, No Iterations 3
GAMG:  Solving for p, Initial residual = 0.013672614, Final residual = 0.0011939232, No Iterations 3
time step continuity errors : sum local = 4.7723714e-05, global = -1.1275122e-06, cumulative = 0.0018474799
ExecutionTime = 14.03 s  ClockTime = 15 s

Time = 25

smoothSolver:  Solving for Ux, Initial residual = 0.0035305495, Final residual = 0.00024042601, No Iterations 3
smoothSolver:  Solving for Uy, Initial residual = 0.01800147, Final residual = 0.001234903, No Iterations 3
GAMG:  Solving for p, Initial residual = 0.011433792, Final residual = 0.00071363869, No Iterations 5
time step continuity errors : sum local = 2.8357863e-05, global = -1.8823337e-06, cumulative = 0.0018455975
ExecutionTime = 14.53 s  ClockTime = 15 s

Time = 26

smoothSolver:  Solving for Ux, Initial residual = 0.003508759, Final residual = 0.00024001914, No Iterations 3
smoothSolver:  Solving for Uy, Initial residual = 0.017762023, Final residual = 0.0012167214, No Iterations 3
GAMG:  Solving for p, Initial residual = 0.010167665, Final residual = 0.00066833862, No Iterations 3
time step continuity errors : sum local = 2.5366134e-05, global = 4.9909835e-07, cumulative = 0.0018460966
ExecutionTime = 14.98 s  ClockTime = 16 s

Time = 27

smoothSolver:  Solving for Ux, Initial residual = 0.0034720339, Final residual = 0.0002378015, No Iterations 3
smoothSolver:  Solving for Uy, Initial residual = 0.017612658, Final residual = 0.0012073212, No Iterations 3
GAMG:  Solving for p, Initial residual = 0.0089441751, Final residual = 0.00051382103, No Iterations 5
time step continuity errors : sum local = 1.9464946e-05, global = -1.0322107e-06, cumulative = 0.0018450644
ExecutionTime = 15.48 s  ClockTime = 16 s

Time = 28

smoothSolver:  Solving for Ux, Initial residual = 0.0034671813, Final residual = 0.00023844882, No Iterations 3
smoothSolver:  Solving for Uy, Initial residual = 0.017426532, Final residual = 0.001193211, No Iterations 3
GAMG:  Solving for p, Initial residual = 0.0074030419, Final residual = 0.00047084589, No Iterations 3
time step continuity errors : sum local = 1.8267218e-05, global = -8.6843453e-07, cumulative = 0.001844196
ExecutionTime = 15.92 s  ClockTime = 17 s

Time = 29

smoothSolver:  Solving for Ux, Initial residual = 0.0034349238, Final residual = 0.00023655123, No Iterations 3
smoothSolver:  Solving for Uy, Initial residual = 0.01729009, Final residual = 0.0011841408, No Iterations 3
GAMG:  Solving for p, Initial residual = 0.0066795028, Final residual = 0.00059041854, No Iterations 3
time step continuity errors : sum local = 2.2940038e-05, global = -1.1137955e-06, cumulative = 0.0018430822
ExecutionTime = 16.39 s  ClockTime = 17 s

Time = 30

smoothSolver:  Solving for Ux, Initial residual = 0.003425087, Final residual = 0.00023664976, No Iterations 3
smoothSolver:  Solving for Uy, Initial residual = 0.017119801, Final residual = 0.0011715755, No Iterations 3
GAMG:  Solving for p, Initial residual = 0.0059443659, Final residual = 0.00059153735, No Iterations 3
time step continuity errors : sum local = 2.2988385e-05, global = -8.1869266e-07, cumulative = 0.0018422635
ExecutionTime = 16.88 s  ClockTime = 18 s

Time = 31

smoothSolver:  Solving for Ux, Initial residual = 0.0033992213, Final residual = 0.00023517555, No Iterations 3
smoothSolver:  Solving for Uy, Initial residual = 0.016976578, Final residual = 0.0011617396, No Iterations 3
GAMG:  Solving for p, Initial residual = 0.0052676427, Final residual = 0.00048218094, No Iterations 3
time step continuity errors : sum local = 1.8777041e-05, global = -2.8135424e-07, cumulative = 0.0018419822
ExecutionTime = 17.34 s  ClockTime = 18 s

Time = 32

smoothSolver:  Solving for Ux, Initial residual = 0.0033895727, Final residual = 0.00023509212, No Iterations 3
smoothSolver:  Solving for Uy, Initial residual = 0.016810001, Final residual = 0.0011495945, No Iterations 3
GAMG:  Solving for p, Initial residual = 0.0047979938, Final residual = 0.00047700924, No Iterations 3
time step continuity errors : sum local = 1.8539575e-05, global = 5.5136245e-07, cumulative = 0.0018425335
ExecutionTime = 17.8 s  ClockTime = 19 s

Time = 33

smoothSolver:  Solving for Ux, Initial residual = 0.0033662188, Final residual = 0.0002336954, No Iterations 3
smoothSolver:  Solving for Uy, Initial residual = 0.016673854, Final residual = 0.0011402593, No Iterations 3
GAMG:  Solving for p, Initial residual = 0.004423742, Final residual = 0.00022005016, No Iterations 5
time step continuity errors : sum local = 8.5286776e-06, global = 1.0717177e-06, cumulative = 0.0018436052
ExecutionTime = 18.3 s  ClockTime = 19 s

Time = 34

smoothSolver:  Solving for Ux, Initial residual = 0.0033523837, Final residual = 0.00023304351, No Iterations 3
smoothSolver:  Solving for Uy, Initial residual = 0.016524094, Final residual = 0.00112951, No Iterations 3
GAMG:  Solving for p, Initial residual = 0.0041672186, Final residual = 0.00028679932, No Iterations 3
time step continuity errors : sum local = 1.0789901e-05, global = 4.2440871e-07, cumulative = 0.0018440296
ExecutionTime = 18.73 s  ClockTime = 20 s

Time = 35

smoothSolver:  Solving for Ux, Initial residual = 0.0033318007, Final residual = 0.00023183368, No Iterations 3
smoothSolver:  Solving for Uy, Initial residual = 0.016399461, Final residual = 0.0011210198, No Iterations 3
GAMG:  Solving for p, Initial residual = 0.0039766692, Final residual = 0.00033752828, No Iterations 3
time step continuity errors : sum local = 1.2679325e-05, global = 3.7698578e-07, cumulative = 0.0018444066
ExecutionTime = 19.19 s  ClockTime = 20 s

Time = 36

smoothSolver:  Solving for Ux, Initial residual = 0.0033240806, Final residual = 0.00023168028, No Iterations 3
smoothSolver:  Solving for Uy, Initial residual = 0.016262824, Final residual = 0.0011114273, No Iterations 3
GAMG:  Solving for p, Initial residual = 0.0036828623, Final residual = 0.00036531782, No Iterations 3
time step continuity errors : sum local = 1.3700241e-05, global = 2.3874408e-07, cumulative = 0.0018446454
ExecutionTime = 19.63 s  ClockTime = 20 s

Time = 37

smoothSolver:  Solving for Ux, Initial residual = 0.0033055506, Final residual = 0.00023057262, No Iterations 3
smoothSolver:  Solving for Uy, Initial residual = 0.016142328, Final residual = 0.0011032808, No Iterations 3
GAMG:  Solving for p, Initial residual = 0.0034524513, Final residual = 0.00032933851, No Iterations 3
time step continuity errors : sum local = 1.2340001e-05, global = 2.9560834e-07, cumulative = 0.001844941
ExecutionTime = 20.06 s  ClockTime = 21 s

Time = 38

smoothSolver:  Solving for Ux, Initial residual = 0.0032959308, Final residual = 0.00023021883, No Iterations 3
smoothSolver:  Solving for Uy, Initial residual = 0.016009141, Final residual = 0.0010940263, No Iterations 3
GAMG:  Solving for p, Initial residual = 0.0032797798, Final residual = 0.00021930727, No Iterations 4
time step continuity errors : sum local = 8.2042141e-06, global = 3.4965813e-07, cumulative = 0.0018452906
ExecutionTime = 20.53 s  ClockTime = 21 s

Time = 39

smoothSolver:  Solving for Ux, Initial residual = 0.0032771754, Final residual = 0.00022904878, No Iterations 3
smoothSolver:  Solving for Uy, Initial residual = 0.015896762, Final residual = 0.0010865672, No Iterations 3
GAMG:  Solving for p, Initial residual = 0.0030930851, Final residual = 0.00023658301, No Iterations 3
time step continuity errors : sum local = 8.8146332e-06, global = 3.4377628e-07, cumulative = 0.0018456344
ExecutionTime = 20.97 s  ClockTime = 22 s

Time = 40

smoothSolver:  Solving for Ux, Initial residual = 0.0032686776, Final residual = 0.00022874888, No Iterations 3
smoothSolver:  Solving for Uy, Initial residual = 0.01576809, Final residual = 0.0010777553, No Iterations 3
GAMG:  Solving for p, Initial residual = 0.0030356085, Final residual = 0.0001961085, No Iterations 4
time step continuity errors : sum local = 7.2927885e-06, global = 3.4609593e-07, cumulative = 0.0018459805
ExecutionTime = 21.44 s  ClockTime = 22 s

Time = 41

smoothSolver:  Solving for Ux, Initial residual = 0.0032524467, Final residual = 0.00022773592, No Iterations 3
smoothSolver:  Solving for Uy, Initial residual = 0.01566137, Final residual = 0.0010707455, No Iterations 3
GAMG:  Solving for p, Initial residual = 0.0028402194, Final residual = 0.00022455488, No Iterations 3
time step continuity errors : sum local = 8.2923863e-06, global = 3.4482841e-07, cumulative = 0.0018463253
ExecutionTime = 21.88 s  ClockTime = 23 s

Time = 42

smoothSolver:  Solving for Ux, Initial residual = 0.0032432579, Final residual = 0.00022734265, No Iterations 3
smoothSolver:  Solving for Uy, Initial residual = 0.015539558, Final residual = 0.0010625198, No Iterations 3
GAMG:  Solving for p, Initial residual = 0.0028066213, Final residual = 0.00021038875, No Iterations 4
time step continuity errors : sum local = 7.7541005e-06, global = 3.3314712e-07, cumulative = 0.0018466585
ExecutionTime = 22.34 s  ClockTime = 23 s

Time = 43

smoothSolver:  Solving for Ux, Initial residual = 0.0032277207, Final residual = 0.00022635917, No Iterations 3
smoothSolver:  Solving for Uy, Initial residual = 0.015437759, Final residual = 0.0010558595, No Iterations 3
GAMG:  Solving for p, Initial residual = 0.0026541017, Final residual = 0.00021245489, No Iterations 3
time step continuity errors : sum local = 7.7673654e-06, global = 2.9842104e-07, cumulative = 0.0018469569
ExecutionTime = 22.78 s  ClockTime = 24 s

Time = 44

smoothSolver:  Solving for Ux, Initial residual = 0.0032185833, Final residual = 0.00022594224, No Iterations 3
smoothSolver:  Solving for Uy, Initial residual = 0.015322258, Final residual = 0.0010481041, No Iterations 3
GAMG:  Solving for p, Initial residual = 0.0026220562, Final residual = 0.00017381938, No Iterations 4
time step continuity errors : sum local = 6.3447009e-06, global = 3.2554761e-07, cumulative = 0.0018472825
ExecutionTime = 23.25 s  ClockTime = 24 s

Time = 45

smoothSolver:  Solving for Ux, Initial residual = 0.0032047997, Final residual = 0.00022508088, No Iterations 3
smoothSolver:  Solving for Uy, Initial residual = 0.015224024, Final residual = 0.0010416573, No Iterations 3
GAMG:  Solving for p, Initial residual = 0.0024661765, Final residual = 0.00020403495, No Iterations 3
time step continuity errors : sum local = 7.4072457e-06, global = 2.5590503e-07, cumulative = 0.0018475384
ExecutionTime = 23.69 s  ClockTime = 24 s

Time = 46

smoothSolver:  Solving for Ux, Initial residual = 0.0031956158, Final residual = 0.00022463512, No Iterations 3
smoothSolver:  Solving for Uy, Initial residual = 0.015114092, Final residual = 0.0010343194, No Iterations 3
GAMG:  Solving for p, Initial residual = 0.0024444162, Final residual = 0.0001638527, No Iterations 4
time step continuity errors : sum local = 5.94042e-06, global = 2.8703161e-07, cumulative = 0.0018478254
ExecutionTime = 24.16 s  ClockTime = 25 s

Time = 47

smoothSolver:  Solving for Ux, Initial residual = 0.0031829883, Final residual = 0.00022384703, No Iterations 3
smoothSolver:  Solving for Uy, Initial residual = 0.015018384, Final residual = 0.001028035, No Iterations 3
GAMG:  Solving for p, Initial residual = 0.0023205306, Final residual = 0.00019643961, No Iterations 3
time step continuity errors : sum local = 7.0871181e-06, global = 2.4026164e-07, cumulative = 0.0018480657
ExecutionTime = 24.59 s  ClockTime = 25 s

Time = 48

smoothSolver:  Solving for Ux, Initial residual = 0.0031739636, Final residual = 0.00022339693, No Iterations 3
smoothSolver:  Solving for Uy, Initial residual = 0.014913404, Final residual = 0.0010210763, No Iterations 3
GAMG:  Solving for p, Initial residual = 0.0022929762, Final residual = 0.00016606493, No Iterations 4
time step continuity errors : sum local = 5.9836165e-06, global = 2.4838095e-07, cumulative = 0.001848314
ExecutionTime = 25.06 s  ClockTime = 26 s

Time = 49

smoothSolver:  Solving for Ux, Initial residual = 0.0031623356, Final residual = 0.00022266581, No Iterations 3
smoothSolver:  Solving for Uy, Initial residual = 0.014819946, Final residual = 0.0010149588, No Iterations 3
GAMG:  Solving for p, Initial residual = 0.0022020039, Final residual = 0.00019117695, No Iterations 3
time step continuity errors : sum local = 6.8493487e-06, global = 2.3814193e-07, cumulative = 0.0018485522
ExecutionTime = 25.5 s  ClockTime = 26 s

Time = 50

smoothSolver:  Solving for Ux, Initial residual = 0.0031535034, Final residual = 0.00022221601, No Iterations 3
smoothSolver:  Solving for Uy, Initial residual = 0.014719459, Final residual = 0.0010083468, No Iterations 3
GAMG:  Solving for p, Initial residual = 0.0021644423, Final residual = 0.00016927236, No Iterations 4
time step continuity errors : sum local = 6.0568032e-06, global = 2.210031e-07, cumulative = 0.0018487732
ExecutionTime = 25.95 s  ClockTime = 27 s

Time = 51

smoothSolver:  Solving for Ux, Initial residual = 0.0031427934, Final residual = 0.00022154247, No Iterations 3
smoothSolver:  Solving for Uy, Initial residual = 0.014628132, Final residual = 0.0010024192, No Iterations 3
GAMG:  Solving for p, Initial residual = 0.0020966875, Final residual = 0.00018829117, No Iterations 3
time step continuity errors : sum local = 6.6946359e-06, global = 2.3134483e-07, cumulative = 0.0018490045
ExecutionTime = 26.41 s  ClockTime = 27 s

Time = 52

smoothSolver:  Solving for Ux, Initial residual = 0.0031343145, Final residual = 0.00022109828, No Iterations 3
smoothSolver:  Solving for Uy, Initial residual = 0.014532035, Final residual = 0.00099617544, No Iterations 3
GAMG:  Solving for p, Initial residual = 0.0020530904, Final residual = 0.00016552016, No Iterations 4
time step continuity errors : sum local = 5.8779496e-06, global = 2.1049374e-07, cumulative = 0.001849215
ExecutionTime = 26.88 s  ClockTime = 28 s

Time = 53

smoothSolver:  Solving for Ux, Initial residual = 0.0031246163, Final residual = 0.00022048557, No Iterations 3
smoothSolver:  Solving for Uy, Initial residual = 0.014442941, Final residual = 0.00099044545, No Iterations 3
GAMG:  Solving for p, Initial residual = 0.001995697, Final residual = 0.00018603148, No Iterations 3
time step continuity errors : sum local = 6.5655383e-06, global = 2.2682898e-07, cumulative = 0.0018494419
ExecutionTime = 27.31 s  ClockTime = 28 s

Time = 54

smoothSolver:  Solving for Ux, Initial residual = 0.0031165068, Final residual = 0.00022005821, No Iterations 3
smoothSolver:  Solving for Uy, Initial residual = 0.014351071, Final residual = 0.00098454446, No Iterations 3
GAMG:  Solving for p, Initial residual = 0.0019541701, Final residual = 0.00016428671, No Iterations 4
time step continuity errors : sum local = 5.7913461e-06, global = 1.9463984e-07, cumulative = 0.0018496365
ExecutionTime = 27.77 s  ClockTime = 29 s

Time = 55

smoothSolver:  Solving for Ux, Initial residual = 0.0031077389, Final residual = 0.00021950588, No Iterations 3
smoothSolver:  Solving for Uy, Initial residual = 0.014264232, Final residual = 0.00097902228, No Iterations 3
GAMG:  Solving for p, Initial residual = 0.0019053244, Final residual = 0.0001829619, No Iterations 3
time step continuity errors : sum local = 6.4095036e-06, global = 2.2543772e-07, cumulative = 0.0018498619
ExecutionTime = 28.22 s  ClockTime = 29 s

Time = 56

smoothSolver:  Solving for Ux, Initial residual = 0.0031000858, Final residual = 0.00021910247, No Iterations 3
smoothSolver:  Solving for Uy, Initial residual = 0.014176243, Final residual = 0.00097346761, No Iterations 3
GAMG:  Solving for p, Initial residual = 0.0018703125, Final residual = 0.00016521008, No Iterations 4
time step continuity errors : sum local = 5.7810602e-06, global = 1.8361282e-07, cumulative = 0.0018500455
ExecutionTime = 28.69 s  ClockTime = 29 s

Time = 57

smoothSolver:  Solving for Ux, Initial residual = 0.0030923766, Final residual = 0.00021860784, No Iterations 3
smoothSolver:  Solving for Uy, Initial residual = 0.014091762, Final residual = 0.00096818943, No Iterations 3
GAMG:  Solving for p, Initial residual = 0.0018279201, Final residual = 0.0001810685, No Iterations 3
time step continuity errors : sum local = 6.2955531e-06, global = 2.2493682e-07, cumulative = 0.0018502705
ExecutionTime = 29.13 s  ClockTime = 30 s

Time = 58

smoothSolver:  Solving for Ux, Initial residual = 0.0030854445, Final residual = 0.00021822883, No Iterations 3
smoothSolver:  Solving for Uy, Initial residual = 0.014008299, Final residual = 0.00096295373, No Iterations 3
GAMG:  Solving for p, Initial residual = 0.0018035859, Final residual = 0.00016579474, No Iterations 4
time step continuity errors : sum local = 5.758014e-06, global = 1.9291562e-07, cumulative = 0.0018504634
ExecutionTime = 29.59 s  ClockTime = 30 s

Time = 59

smoothSolver:  Solving for Ux, Initial residual = 0.003078801, Final residual = 0.00021779413, No Iterations 3
smoothSolver:  Solving for Uy, Initial residual = 0.013925821, Final residual = 0.00095777898, No Iterations 3
GAMG:  Solving for p, Initial residual = 0.0017651783, Final residual = 0.0001291546, No Iterations 4
time step continuity errors : sum local = 4.4574659e-06, global = 2.3280106e-07, cumulative = 0.0018506962
ExecutionTime = 30.05 s  ClockTime = 31 s

Time = 60

smoothSolver:  Solving for Ux, Initial residual = 0.0030724396, Final residual = 0.00021742315, No Iterations 3
smoothSolver:  Solving for Uy, Initial residual = 0.013844603, Final residual = 0.00095270887, No Iterations 3
GAMG:  Solving for p, Initial residual = 0.0017077318, Final residual = 0.00013241685, No Iterations 4
time step continuity errors : sum local = 4.5540918e-06, global = 2.8986128e-07, cumulative = 0.0018509861
ExecutionTime = 30.52 s  ClockTime = 31 s

Time = 61

smoothSolver:  Solving for Ux, Initial residual = 0.0030664041, Final residual = 0.00021706203, No Iterations 3
smoothSolver:  Solving for Uy, Initial residual = 0.01376468, Final residual = 0.00094772487, No Iterations 3
GAMG:  Solving for p, Initial residual = 0.0016703152, Final residual = 0.00013668982, No Iterations 4
time step continuity errors : sum local = 4.6859966e-06, global = 3.4019058e-07, cumulative = 0.0018513262
ExecutionTime = 30.97 s  ClockTime = 32 s

Time = 62

smoothSolver:  Solving for Ux, Initial residual = 0.0030609794, Final residual = 0.00021673949, No Iterations 3
smoothSolver:  Solving for Uy, Initial residual = 0.013684549, Final residual = 0.00094272831, No Iterations 3
GAMG:  Solving for p, Initial residual = 0.0016416554, Final residual = 0.00013667555, No Iterations 4
time step continuity errors : sum local = 4.6679856e-06, global = 3.6524229e-07, cumulative = 0.0018516915
ExecutionTime = 31.44 s  ClockTime = 32 s

Time = 63

smoothSolver:  Solving for Ux, Initial residual = 0.0030558068, Final residual = 0.00021642277, No Iterations 3
smoothSolver:  Solving for Uy, Initial residual = 0.013606366, Final residual = 0.00093788057, No Iterations 3
GAMG:  Solving for p, Initial residual = 0.0016154159, Final residual = 0.00013459916, No Iterations 4
time step continuity errors : sum local = 4.5789795e-06, global = 3.6556468e-07, cumulative = 0.0018520571
ExecutionTime = 31.89 s  ClockTime = 33 s

Time = 64

smoothSolver:  Solving for Ux, Initial residual = 0.0030511757, Final residual = 0.00021614039, No Iterations 3
smoothSolver:  Solving for Uy, Initial residual = 0.013528443, Final residual = 0.00093303257, No Iterations 3
GAMG:  Solving for p, Initial residual = 0.0015931941, Final residual = 0.00013452932, No Iterations 4
time step continuity errors : sum local = 4.5580273e-06, global = 3.4980051e-07, cumulative = 0.0018524069
ExecutionTime = 32.36 s  ClockTime = 33 s

Time = 65

smoothSolver:  Solving for Ux, Initial residual = 0.0030467199, Final residual = 0.00021586798, No Iterations 3
smoothSolver:  Solving for Uy, Initial residual = 0.013451839, Final residual = 0.0009282866, No Iterations 3
GAMG:  Solving for p, Initial residual = 0.001572839, Final residual = 0.00013453377, No Iterations 4
time step continuity errors : sum local = 4.5400256e-06, global = 3.2429086e-07, cumulative = 0.0018527311
ExecutionTime = 32.83 s  ClockTime = 34 s

Time = 66

smoothSolver:  Solving for Ux, Initial residual = 0.0030427546, Final residual = 0.00021562683, No Iterations 3
smoothSolver:  Solving for Uy, Initial residual = 0.01337536, Final residual = 0.00092355836, No Iterations 3
GAMG:  Solving for p, Initial residual = 0.0015521455, Final residual = 0.0001343745, No Iterations 4
time step continuity errors : sum local = 4.5163387e-06, global = 2.9568204e-07, cumulative = 0.0018530268
ExecutionTime = 33.41 s  ClockTime = 34 s

Time = 67

smoothSolver:  Solving for Ux, Initial residual = 0.0030390578, Final residual = 0.00021539949, No Iterations 3
smoothSolver:  Solving for Uy, Initial residual = 0.013300149, Final residual = 0.00091891522, No Iterations 3
GAMG:  Solving for p, Initial residual = 0.0015339608, Final residual = 0.00013376063, No Iterations 4
time step continuity errors : sum local = 4.4776251e-06, global = 2.5783901e-07, cumulative = 0.0018532847
ExecutionTime = 33.89 s  ClockTime = 35 s

Time = 68

smoothSolver:  Solving for Ux, Initial residual = 0.0030358365, Final residual = 0.00021520515, No Iterations 3
smoothSolver:  Solving for Uy, Initial residual = 0.013225147, Final residual = 0.00091430011, No Iterations 3
GAMG:  Solving for p, Initial residual = 0.0015153343, Final residual = 0.00013389679, No Iterations 4
time step continuity errors : sum local = 4.463791e-06, global = 2.2578946e-07, cumulative = 0.0018535105
ExecutionTime = 34.39 s  ClockTime = 35 s

Time = 69

smoothSolver:  Solving for Ux, Initial residual = 0.0030329186, Final residual = 0.00021503065, No Iterations 3
smoothSolver:  Solving for Uy, Initial residual = 0.013151069, Final residual = 0.00090977627, No Iterations 3
GAMG:  Solving for p, Initial residual = 0.0015002932, Final residual = 0.00013427582, No Iterations 4
time step continuity errors : sum local = 4.458327e-06, global = 2.0241259e-07, cumulative = 0.0018537129
ExecutionTime = 34.89 s  ClockTime = 36 s

Time = 70

smoothSolver:  Solving for Ux, Initial residual = 0.0030304922, Final residual = 0.00021489116, No Iterations 3
smoothSolver:  Solving for Uy, Initial residual = 0.013077317, Final residual = 0.00090529286, No Iterations 3
GAMG:  Solving for p, Initial residual = 0.0014833721, Final residual = 0.00013502876, No Iterations 4
time step continuity errors : sum local = 4.4650706e-06, global = 1.8640928e-07, cumulative = 0.0018538993
ExecutionTime = 35.42 s  ClockTime = 36 s

Time = 71

smoothSolver:  Solving for Ux, Initial residual = 0.0030284435, Final residual = 0.00021477672, No Iterations 3
smoothSolver:  Solving for Uy, Initial residual = 0.013004566, Final residual = 0.00090088957, No Iterations 3
GAMG:  Solving for p, Initial residual = 0.0014696044, Final residual = 0.00013554366, No Iterations 4
time step continuity errors : sum local = 4.46381e-06, global = 1.7524161e-07, cumulative = 0.0018540745
ExecutionTime = 35.93 s  ClockTime = 37 s

Time = 72

smoothSolver:  Solving for Ux, Initial residual = 0.0030268828, Final residual = 0.00021470346, No Iterations 3
smoothSolver:  Solving for Uy, Initial residual = 0.012932194, Final residual = 0.00089653379, No Iterations 3
GAMG:  Solving for p, Initial residual = 0.001453956, Final residual = 0.00013611969, No Iterations 4
time step continuity errors : sum local = 4.4642928e-06, global = 1.6705861e-07, cumulative = 0.0018542416
ExecutionTime = 36.4 s  ClockTime = 37 s

Time = 73

smoothSolver:  Solving for Ux, Initial residual = 0.0030256815, Final residual = 0.00021465783, No Iterations 3
smoothSolver:  Solving for Uy, Initial residual = 0.012860909, Final residual = 0.00089225537, No Iterations 3
GAMG:  Solving for p, Initial residual = 0.0014415248, Final residual = 0.0001363882, No Iterations 4
time step continuity errors : sum local = 4.4545845e-06, global = 1.719671e-07, cumulative = 0.0018544135
ExecutionTime = 36.88 s  ClockTime = 38 s

Time = 74

smoothSolver:  Solving for Ux, Initial residual = 0.0030249179, Final residual = 0.00021464505, No Iterations 3
smoothSolver:  Solving for Uy, Initial residual = 0.012790048, Final residual = 0.00088803058, No Iterations 3
GAMG:  Solving for p, Initial residual = 0.0014275966, Final residual = 0.00013677392, No Iterations 4
time step continuity errors : sum local = 4.4487612e-06, global = 1.7330329e-07, cumulative = 0.0018545868
ExecutionTime = 37.35 s  ClockTime = 38 s

Time = 75

smoothSolver:  Solving for Ux, Initial residual = 0.003024462, Final residual = 0.0002146539, No Iterations 3
smoothSolver:  Solving for Uy, Initial residual = 0.012720288, Final residual = 0.00088388965, No Iterations 3
GAMG:  Solving for p, Initial residual = 0.0014168122, Final residual = 0.00013655861, No Iterations 4
time step continuity errors : sum local = 4.4232106e-06, global = 1.7200825e-07, cumulative = 0.0018547589
ExecutionTime = 37.82 s  ClockTime = 39 s

Time = 76

smoothSolver:  Solving for Ux, Initial residual = 0.0030243513, Final residual = 0.00021469306, No Iterations 3
smoothSolver:  Solving for Uy, Initial residual = 0.012651292, Final residual = 0.00087981073, No Iterations 3
GAMG:  Solving for p, Initial residual = 0.0014046658, Final residual = 0.0001361735, No Iterations 4
time step continuity errors : sum local = 4.3921497e-06, global = 1.6854692e-07, cumulative = 0.0018549274
ExecutionTime = 38.3 s  ClockTime = 39 s

Time = 77

smoothSolver:  Solving for Ux, Initial residual = 0.0030245047, Final residual = 0.000214753, No Iterations 3
smoothSolver:  Solving for Uy, Initial residual = 0.012583325, Final residual = 0.00087581435, No Iterations 3
GAMG:  Solving for p, Initial residual = 0.001394863, Final residual = 0.00013543676, No Iterations 4
time step continuity errors : sum local = 4.3499616e-06, global = 1.6379991e-07, cumulative = 0.0018550912
ExecutionTime = 38.77 s  ClockTime = 40 s

Time = 78

smoothSolver:  Solving for Ux, Initial residual = 0.0030249554, Final residual = 0.00021483677, No Iterations 3
smoothSolver:  Solving for Uy, Initial residual = 0.012516187, Final residual = 0.00087187269, No Iterations 3
GAMG:  Solving for p, Initial residual = 0.0013835952, Final residual = 0.00013466258, No Iterations 4
time step continuity errors : sum local = 4.3068198e-06, global = 1.578462e-07, cumulative = 0.001855249
ExecutionTime = 39.24 s  ClockTime = 40 s

Time = 79

smoothSolver:  Solving for Ux, Initial residual = 0.0030256151, Final residual = 0.00021493849, No Iterations 3
smoothSolver:  Solving for Uy, Initial residual = 0.012450246, Final residual = 0.00086800969, No Iterations 3
GAMG:  Solving for p, Initial residual = 0.0013746501, Final residual = 0.00013368595, No Iterations 4
time step continuity errors : sum local = 4.2575478e-06, global = 1.510098e-07, cumulative = 0.0018554001
ExecutionTime = 39.71 s  ClockTime = 41 s

Time = 80

smoothSolver:  Solving for Ux, Initial residual = 0.003026508, Final residual = 0.00021505857, No Iterations 3
smoothSolver:  Solving for Uy, Initial residual = 0.012385321, Final residual = 0.00086421104, No Iterations 3
GAMG:  Solving for p, Initial residual = 0.0013646345, Final residual = 0.00013293104, No Iterations 4
time step continuity errors : sum local = 4.215638e-06, global = 1.4074411e-07, cumulative = 0.0018555408
ExecutionTime = 40.16 s  ClockTime = 41 s

Time = 81

smoothSolver:  Solving for Ux, Initial residual = 0.0030275467, Final residual = 0.00021518987, No Iterations 3
smoothSolver:  Solving for Uy, Initial residual = 0.012321622, Final residual = 0.00086048293, No Iterations 3
GAMG:  Solving for p, Initial residual = 0.0013570339, Final residual = 0.00013203823, No Iterations 4
time step continuity errors : sum local = 4.1696882e-06, global = 1.3001653e-07, cumulative = 0.0018556708
ExecutionTime = 40.63 s  ClockTime = 41 s

Time = 82

smoothSolver:  Solving for Ux, Initial residual = 0.0030287591, Final residual = 0.00021532998, No Iterations 3
smoothSolver:  Solving for Uy, Initial residual = 0.012259189, Final residual = 0.00085681627, No Iterations 3
GAMG:  Solving for p, Initial residual = 0.0013482907, Final residual = 0.00013125267, No Iterations 4
time step continuity errors : sum local = 4.1273943e-06, global = 1.1905054e-07, cumulative = 0.0018557899
ExecutionTime = 41.1 s  ClockTime = 42 s

Time = 83

smoothSolver:  Solving for Ux, Initial residual = 0.0030300434, Final residual = 0.00021547757, No Iterations 3
smoothSolver:  Solving for Uy, Initial residual = 0.012198198, Final residual = 0.00085322742, No Iterations 3
GAMG:  Solving for p, Initial residual = 0.0013413126, Final residual = 0.00013052682, No Iterations 4
time step continuity errors : sum local = 4.0872667e-06, global = 1.0828179e-07, cumulative = 0.0018558982
ExecutionTime = 41.55 s  ClockTime = 42 s

Time = 84

smoothSolver:  Solving for Ux, Initial residual = 0.0030314027, Final residual = 0.00021563107, No Iterations 3
smoothSolver:  Solving for Uy, Initial residual = 0.012138511, Final residual = 0.00084970529, No Iterations 3
GAMG:  Solving for p, Initial residual = 0.0013334754, Final residual = 0.00013002075, No Iterations 4
time step continuity errors : sum local = 4.0542464e-06, global = 9.7895109e-08, cumulative = 0.001855996
ExecutionTime = 42.02 s  ClockTime = 43 s

Time = 85

smoothSolver:  Solving for Ux, Initial residual = 0.0030327944, Final residual = 0.00021578458, No Iterations 3
smoothSolver:  Solving for Uy, Initial residual = 0.012080404, Final residual = 0.00084625383, No Iterations 3
GAMG:  Solving for p, Initial residual = 0.0013273104, Final residual = 0.00012973838, No Iterations 4
time step continuity errors : sum local = 4.0283961e-06, global = 8.8171682e-08, cumulative = 0.0018560842
ExecutionTime = 42.49 s  ClockTime = 43 s

Time = 86

smoothSolver:  Solving for Ux, Initial residual = 0.0030342076, Final residual = 0.00021593932, No Iterations 3
smoothSolver:  Solving for Uy, Initial residual = 0.012023839, Final residual = 0.00084287353, No Iterations 3
GAMG:  Solving for p, Initial residual = 0.001320766, Final residual = 0.00012972859, No Iterations 4
time step continuity errors : sum local = 4.0111205e-06, global = 7.9340107e-08, cumulative = 0.0018561636
ExecutionTime = 42.94 s  ClockTime = 44 s

Time = 87

smoothSolver:  Solving for Ux, Initial residual = 0.0030355849, Final residual = 0.0002160911, No Iterations 3
smoothSolver:  Solving for Uy, Initial residual = 0.011968885, Final residual = 0.00083957042, No Iterations 3
GAMG:  Solving for p, Initial residual = 0.001315673, Final residual = 0.00012989893, No Iterations 4
time step continuity errors : sum local = 3.9994896e-06, global = 7.1681417e-08, cumulative = 0.0018562352
ExecutionTime = 43.41 s  ClockTime = 44 s

Time = 88

smoothSolver:  Solving for Ux, Initial residual = 0.0030369149, Final residual = 0.00021624146, No Iterations 3
smoothSolver:  Solving for Uy, Initial residual = 0.011915599, Final residual = 0.00083634228, No Iterations 3
GAMG:  Solving for p, Initial residual = 0.0013101832, Final residual = 0.00013026001, No Iterations 4
time step continuity errors : sum local = 3.9937393e-06, global = 6.5417059e-08, cumulative = 0.0018563007
ExecutionTime = 43.88 s  ClockTime = 45 s

Time = 89

smoothSolver:  Solving for Ux, Initial residual = 0.0030381588, Final residual = 0.00021638913, No Iterations 3
smoothSolver:  Solving for Uy, Initial residual = 0.011864081, Final residual = 0.00083319933, No Iterations 3
GAMG:  Solving for p, Initial residual = 0.0013059538, Final residual = 8.0446199e-05, No Iterations 5
time step continuity errors : sum local = 2.4561039e-06, global = 3.1455261e-07, cumulative = 0.0018566152
ExecutionTime = 44.36 s  ClockTime = 45 s

Time = 90

smoothSolver:  Solving for Ux, Initial residual = 0.0030394136, Final residual = 0.00021652681, No Iterations 3
smoothSolver:  Solving for Uy, Initial residual = 0.011812481, Final residual = 0.00083000331, No Iterations 3
GAMG:  Solving for p, Initial residual = 0.001291312, Final residual = 9.9837437e-05, No Iterations 4
time step continuity errors : sum local = 3.0284986e-06, global = 2.1477971e-07, cumulative = 0.00185683
ExecutionTime = 44.86 s  ClockTime = 46 s

Time = 91

smoothSolver:  Solving for Ux, Initial residual = 0.0030398011, Final residual = 0.00021663438, No Iterations 3
smoothSolver:  Solving for Uy, Initial residual = 0.011768373, Final residual = 0.00082729958, No Iterations 3
GAMG:  Solving for p, Initial residual = 0.0012936075, Final residual = 0.00012447889, No Iterations 4
time step continuity errors : sum local = 3.7695406e-06, global = 2.0437336e-07, cumulative = 0.0018570344
ExecutionTime = 45.33 s  ClockTime = 46 s

Time = 92

smoothSolver:  Solving for Ux, Initial residual = 0.0030413257, Final residual = 0.00021681028, No Iterations 3
smoothSolver:  Solving for Uy, Initial residual = 0.011720084, Final residual = 0.00082423557, No Iterations 3
GAMG:  Solving for p, Initial residual = 0.0012858354, Final residual = 8.6296712e-05, No Iterations 5
time step continuity errors : sum local = 2.6051911e-06, global = 3.6202449e-08, cumulative = 0.0018570706
ExecutionTime = 45.82 s  ClockTime = 47 s

Time = 93

smoothSolver:  Solving for Ux, Initial residual = 0.0030420547, Final residual = 0.00021691081, No Iterations 3
smoothSolver:  Solving for Uy, Initial residual = 0.011674998, Final residual = 0.00082136246, No Iterations 3
GAMG:  Solving for p, Initial residual = 0.0012852063, Final residual = 9.7983119e-05, No Iterations 4
time step continuity errors : sum local = 2.9344413e-06, global = 7.3875967e-08, cumulative = 0.0018571444
ExecutionTime = 46.29 s  ClockTime = 47 s

Time = 94

smoothSolver:  Solving for Ux, Initial residual = 0.0030418132, Final residual = 0.0002169829, No Iterations 3
smoothSolver:  Solving for Uy, Initial residual = 0.011635443, Final residual = 0.00081886193, No Iterations 3
GAMG:  Solving for p, Initial residual = 0.0012866043, Final residual = 0.00012563153, No Iterations 4
time step continuity errors : sum local = 3.7582791e-06, global = 1.209118e-07, cumulative = 0.0018572654
ExecutionTime = 46.75 s  ClockTime = 48 s

Time = 95

smoothSolver:  Solving for Ux, Initial residual = 0.0030427957, Final residual = 0.00021712458, No Iterations 3
smoothSolver:  Solving for Uy, Initial residual = 0.011592931, Final residual = 0.0008160687, No Iterations 3
GAMG:  Solving for p, Initial residual = 0.0012767243, Final residual = 8.7192913e-05, No Iterations 5
time step continuity errors : sum local = 2.6006356e-06, global = 2.5875775e-07, cumulative = 0.0018575241
ExecutionTime = 47.24 s  ClockTime = 48 s

Time = 96

smoothSolver:  Solving for Ux, Initial residual = 0.0030429173, Final residual = 0.00021718469, No Iterations 3
smoothSolver:  Solving for Uy, Initial residual = 0.0115524, Final residual = 0.00081339054, No Iterations 3
GAMG:  Solving for p, Initial residual = 0.0012729658, Final residual = 0.00010128131, No Iterations 4
time step continuity errors : sum local = 2.9976103e-06, global = 1.7991176e-07, cumulative = 0.001857704
ExecutionTime = 47.69 s  ClockTime = 49 s

Time = 97

smoothSolver:  Solving for Ux, Initial residual = 0.0030419089, Final residual = 0.00021720123, No Iterations 3
smoothSolver:  Solving for Uy, Initial residual = 0.01151979, Final residual = 0.00081123685, No Iterations 3
GAMG:  Solving for p, Initial residual = 0.0012811211, Final residual = 8.3502834e-05, No Iterations 5
time step continuity errors : sum local = 2.4673906e-06, global = -9.2187075e-09, cumulative = 0.0018576948
ExecutionTime = 48.18 s  ClockTime = 49 s

Time = 98

smoothSolver:  Solving for Ux, Initial residual = 0.0030425081, Final residual = 0.00021729281, No Iterations 3
smoothSolver:  Solving for Uy, Initial residual = 0.011481333, Final residual = 0.00080867117, No Iterations 3
GAMG:  Solving for p, Initial residual = 0.0012706117, Final residual = 0.00010935504, No Iterations 4
time step continuity errors : sum local = 3.2116915e-06, global = 7.9076903e-08, cumulative = 0.0018577739
ExecutionTime = 48.65 s  ClockTime = 49 s

Time = 99

smoothSolver:  Solving for Ux, Initial residual = 0.0030409829, Final residual = 0.000217271, No Iterations 3
smoothSolver:  Solving for Uy, Initial residual = 0.011450693, Final residual = 0.00080676006, No Iterations 3
GAMG:  Solving for p, Initial residual = 0.0012825628, Final residual = 8.5273139e-05, No Iterations 5
time step continuity errors : sum local = 2.5009977e-06, global = 2.3657636e-07, cumulative = 0.0018580105
ExecutionTime = 49.13 s  ClockTime = 50 s

Time = 100

smoothSolver:  Solving for Ux, Initial residual = 0.0030410616, Final residual = 0.00021732151, No Iterations 3
smoothSolver:  Solving for Uy, Initial residual = 0.011415036, Final residual = 0.00080445965, No Iterations 3
GAMG:  Solving for p, Initial residual = 0.0012712871, Final residual = 0.00010881323, No Iterations 4
time step continuity errors : sum local = 3.1715496e-06, global = 1.8263231e-07, cumulative = 0.0018581931
ExecutionTime = 50.26 s  ClockTime = 51 s

    functionObjects::vorticity vorticity1 writing field: vorticityField
Time = 101

smoothSolver:  Solving for Ux, Initial residual = 0.0030389824, Final residual = 0.00021725526, No Iterations 3
smoothSolver:  Solving for Uy, Initial residual = 0.011389074, Final residual = 0.00080289635, No Iterations 3
GAMG:  Solving for p, Initial residual = 0.0012922459, Final residual = 8.7234213e-05, No Iterations 5
time step continuity errors : sum local = 2.5378026e-06, global = 1.046003e-07, cumulative = 0.0018582977
ExecutionTime = 51.08 s  ClockTime = 52 s

Time = 102

smoothSolver:  Solving for Ux, Initial residual = 0.0030385722, Final residual = 0.00021726894, No Iterations 3
smoothSolver:  Solving for Uy, Initial residual = 0.01135638, Final residual = 0.00080091805, No Iterations 3
GAMG:  Solving for p, Initial residual = 0.0012917999, Final residual = 0.0001067494, No Iterations 4
time step continuity errors : sum local = 3.0838429e-06, global = 1.2426643e-07, cumulative = 0.001858422
ExecutionTime = 51.55 s  ClockTime = 52 s

Time = 103

smoothSolver:  Solving for Ux, Initial residual = 0.0030358753, Final residual = 0.00021716542, No Iterations 3
smoothSolver:  Solving for Uy, Initial residual = 0.011332172, Final residual = 0.00079964893, No Iterations 3
GAMG:  Solving for p, Initial residual = 0.0013132154, Final residual = 8.6201756e-05, No Iterations 5
time step continuity errors : sum local = 2.4872537e-06, global = 1.522653e-07, cumulative = 0.0018585742
ExecutionTime = 52.03 s  ClockTime = 53 s

Time = 104

smoothSolver:  Solving for Ux, Initial residual = 0.0030350527, Final residual = 0.00021715562, No Iterations 3
smoothSolver:  Solving for Uy, Initial residual = 0.011301661, Final residual = 0.00079791278, No Iterations 3
GAMG:  Solving for p, Initial residual = 0.0013076756, Final residual = 0.0001106853, No Iterations 4
time step continuity errors : sum local = 3.1749435e-06, global = 1.4352515e-07, cumulative = 0.0018587177
ExecutionTime = 52.5 s  ClockTime = 53 s

Time = 105

smoothSolver:  Solving for Ux, Initial residual = 0.0030317802, Final residual = 0.00021701292, No Iterations 3
smoothSolver:  Solving for Uy, Initial residual = 0.011279393, Final residual = 0.00079682923, No Iterations 3
GAMG:  Solving for p, Initial residual = 0.0013356321, Final residual = 9.0316313e-05, No Iterations 5
time step continuity errors : sum local = 2.586514e-06, global = 1.6317381e-07, cumulative = 0.0018588809
ExecutionTime = 53 s  ClockTime = 54 s

Time = 106

smoothSolver:  Solving for Ux, Initial residual = 0.0030303635, Final residual = 0.00021695837, No Iterations 3
smoothSolver:  Solving for Uy, Initial residual = 0.011250291, Final residual = 0.0007952283, No Iterations 3
GAMG:  Solving for p, Initial residual = 0.0013396006, Final residual = 0.00010875026, No Iterations 4
time step continuity errors : sum local = 3.0942139e-06, global = 1.4956822e-07, cumulative = 0.0018590305
ExecutionTime = 53.45 s  ClockTime = 54 s

Time = 107

smoothSolver:  Solving for Ux, Initial residual = 0.0030266035, Final residual = 0.00021678324, No Iterations 3
smoothSolver:  Solving for Uy, Initial residual = 0.011228861, Final residual = 0.00079420818, No Iterations 3
GAMG:  Solving for p, Initial residual = 0.0013660041, Final residual = 9.0582746e-05, No Iterations 5
time step continuity errors : sum local = 2.5740228e-06, global = 1.5058542e-07, cumulative = 0.0018591811
ExecutionTime = 53.95 s  ClockTime = 55 s

Time = 108

smoothSolver:  Solving for Ux, Initial residual = 0.0030246973, Final residual = 0.00021670029, No Iterations 3
smoothSolver:  Solving for Uy, Initial residual = 0.011200457, Final residual = 0.00079263825, No Iterations 3
GAMG:  Solving for p, Initial residual = 0.0013687781, Final residual = 0.00010923824, No Iterations 4
time step continuity errors : sum local = 3.0850074e-06, global = 1.3900447e-07, cumulative = 0.0018593201
ExecutionTime = 54.42 s  ClockTime = 55 s

Time = 109

smoothSolver:  Solving for Ux, Initial residual = 0.0030205316, Final residual = 0.00021650347, No Iterations 3
smoothSolver:  Solving for Uy, Initial residual = 0.011178757, Final residual = 0.00079156822, No Iterations 3
GAMG:  Solving for p, Initial residual = 0.001394914, Final residual = 9.0999978e-05, No Iterations 5
time step continuity errors : sum local = 2.566684e-06, global = 1.8029235e-07, cumulative = 0.0018595004
ExecutionTime = 54.91 s  ClockTime = 56 s

Time = 110

smoothSolver:  Solving for Ux, Initial residual = 0.003018146, Final residual = 0.00021638997, No Iterations 3
smoothSolver:  Solving for Uy, Initial residual = 0.01115039, Final residual = 0.00078995472, No Iterations 3
GAMG:  Solving for p, Initial residual = 0.001398935, Final residual = 0.0001082589, No Iterations 4
time step continuity errors : sum local = 3.0352761e-06, global = 1.4757415e-07, cumulative = 0.0018596479
ExecutionTime = 55.38 s  ClockTime = 56 s

Time = 111

smoothSolver:  Solving for Ux, Initial residual = 0.0030137322, Final residual = 0.00021617791, No Iterations 3
smoothSolver:  Solving for Uy, Initial residual = 0.011127936, Final residual = 0.00078875996, No Iterations 3
GAMG:  Solving for p, Initial residual = 0.0014232213, Final residual = 9.011926e-05, No Iterations 5
time step continuity errors : sum local = 2.5234199e-06, global = 1.925751e-07, cumulative = 0.0018598405
ExecutionTime = 55.86 s  ClockTime = 57 s

Time = 112

smoothSolver:  Solving for Ux, Initial residual = 0.003010899, Final residual = 0.00021603764, No Iterations 3
smoothSolver:  Solving for Uy, Initial residual = 0.011099125, Final residual = 0.00078705503, No Iterations 3
GAMG:  Solving for p, Initial residual = 0.00142876, Final residual = 0.00010747034, No Iterations 4
time step continuity errors : sum local = 2.9918535e-06, global = 1.4497946e-07, cumulative = 0.0018599855
ExecutionTime = 56.33 s  ClockTime = 57 s

Time = 113

smoothSolver:  Solving for Ux, Initial residual = 0.003006354, Final residual = 0.00021582123, No Iterations 3
smoothSolver:  Solving for Uy, Initial residual = 0.011075168, Final residual = 0.00078568103, No Iterations 3
GAMG:  Solving for p, Initial residual = 0.001450181, Final residual = 8.9150922e-05, No Iterations 5
time step continuity errors : sum local = 2.4790143e-06, global = 2.1145855e-07, cumulative = 0.001860197
ExecutionTime = 56.83 s  ClockTime = 58 s

Time = 114

smoothSolver:  Solving for Ux, Initial residual = 0.0030032455, Final residual = 0.00021566093, No Iterations 3
smoothSolver:  Solving for Uy, Initial residual = 0.011045324, Final residual = 0.00078389152, No Iterations 3
GAMG:  Solving for p, Initial residual = 0.0014567332, Final residual = 0.00010479367, No Iterations 4
time step continuity errors : sum local = 2.8975572e-06, global = 1.5223707e-07, cumulative = 0.0018603492
ExecutionTime = 57.3 s  ClockTime = 58 s

Time = 115

smoothSolver:  Solving for Ux, Initial residual = 0.0029987078, Final residual = 0.00021544387, No Iterations 3
smoothSolver:  Solving for Uy, Initial residual = 0.011019374, Final residual = 0.00078238765, No Iterations 3
GAMG:  Solving for p, Initial residual = 0.0014743006, Final residual = 0.00014427914, No Iterations 4
time step continuity errors : sum local = 3.9847688e-06, global = 7.747156e-08, cumulative = 0.0018604267
ExecutionTime = 57.77 s  ClockTime = 59 s

Time = 116

smoothSolver:  Solving for Ux, Initial residual = 0.0029951798, Final residual = 0.00021527602, No Iterations 3
smoothSolver:  Solving for Uy, Initial residual = 0.010988977, Final residual = 0.00078053019, No Iterations 3
GAMG:  Solving for p, Initial residual = 0.0014987563, Final residual = 6.6067168e-05, No Iterations 5
time step continuity errors : sum local = 1.8196364e-06, global = 4.2969791e-07, cumulative = 0.0018608564
ExecutionTime = 58.25 s  ClockTime = 59 s

Time = 117

smoothSolver:  Solving for Ux, Initial residual = 0.0029913973, Final residual = 0.00021507455, No Iterations 3
smoothSolver:  Solving for Uy, Initial residual = 0.010958213, Final residual = 0.00077863537, No Iterations 3
GAMG:  Solving for p, Initial residual = 0.0014905383, Final residual = 0.00012004287, No Iterations 4
time step continuity errors : sum local = 3.2907629e-06, global = 2.5820865e-07, cumulative = 0.0018611146
ExecutionTime = 58.72 s  ClockTime = 60 s

Time = 118

smoothSolver:  Solving for Ux, Initial residual = 0.0029871577, Final residual = 0.00021486719, No Iterations 3
smoothSolver:  Solving for Uy, Initial residual = 0.010927761, Final residual = 0.00077672396, No Iterations 3
GAMG:  Solving for p, Initial residual = 0.0015144201, Final residual = 0.00013829191, No Iterations 4
time step continuity errors : sum local = 3.7809296e-06, global = 1.2280389e-07, cumulative = 0.0018612374
ExecutionTime = 59.17 s  ClockTime = 60 s

Time = 119

smoothSolver:  Solving for Ux, Initial residual = 0.0029833948, Final residual = 0.00021467424, No Iterations 3
smoothSolver:  Solving for Uy, Initial residual = 0.010895366, Final residual = 0.00077467547, No Iterations 3
GAMG:  Solving for p, Initial residual = 0.0015281602, Final residual = 0.00014099987, No Iterations 4
time step continuity errors : sum local = 3.8414811e-06, global = -2.4868171e-09, cumulative = 0.0018612349
ExecutionTime = 59.64 s  ClockTime = 61 s

Time = 120

smoothSolver:  Solving for Ux, Initial residual = 0.0029796474, Final residual = 0.0002144817, No Iterations 3
smoothSolver:  Solving for Uy, Initial residual = 0.010861502, Final residual = 0.00077250272, No Iterations 3
GAMG:  Solving for p, Initial residual = 0.0015400181, Final residual = 0.00014259473, No Iterations 4
time step continuity errors : sum local = 3.8717968e-06, global = -9.5967561e-08, cumulative = 0.0018611389
ExecutionTime = 60.11 s  ClockTime = 61 s

Time = 121

smoothSolver:  Solving for Ux, Initial residual = 0.0029759213, Final residual = 0.00021428911, No Iterations 3
smoothSolver:  Solving for Uy, Initial residual = 0.010826576, Final residual = 0.00077022431, No Iterations 3
GAMG:  Solving for p, Initial residual = 0.0015459042, Final residual = 0.00014370224, No Iterations 4
time step continuity errors : sum local = 3.8901335e-06, global = -1.5701695e-07, cumulative = 0.0018609819
ExecutionTime = 60.55 s  ClockTime = 61 s

Time = 122

smoothSolver:  Solving for Ux, Initial residual = 0.0029723116, Final residual = 0.00021410211, No Iterations 3
smoothSolver:  Solving for Uy, Initial residual = 0.010790279, Final residual = 0.00076782006, No Iterations 3
GAMG:  Solving for p, Initial residual = 0.00155404, Final residual = 0.00014418232, No Iterations 4
time step continuity errors : sum local = 3.891798e-06, global = -2.0000395e-07, cumulative = 0.0018607819
ExecutionTime = 61.02 s  ClockTime = 62 s

Time = 123

smoothSolver:  Solving for Ux, Initial residual = 0.0029687756, Final residual = 0.00021391698, No Iterations 3
smoothSolver:  Solving for Uy, Initial residual = 0.010752876, Final residual = 0.00076529919, No Iterations 3
GAMG:  Solving for p, Initial residual = 0.0015583355, Final residual = 0.00014471228, No Iterations 4
time step continuity errors : sum local = 3.8950413e-06, global = -2.3199863e-07, cumulative = 0.0018605499
ExecutionTime = 61.48 s  ClockTime = 62 s

Time = 124

smoothSolver:  Solving for Ux, Initial residual = 0.0029653738, Final residual = 0.00021373799, No Iterations 3
smoothSolver:  Solving for Uy, Initial residual = 0.01071415, Final residual = 0.00076263737, No Iterations 3
GAMG:  Solving for p, Initial residual = 0.0015641468, Final residual = 0.00014509987, No Iterations 4
time step continuity errors : sum local = 3.8944837e-06, global = -2.5828139e-07, cumulative = 0.0018602916
ExecutionTime = 61.95 s  ClockTime = 63 s

Time = 125

smoothSolver:  Solving for Ux, Initial residual = 0.0029620642, Final residual = 0.00021356191, No Iterations 3
smoothSolver:  Solving for Uy, Initial residual = 0.010674365, Final residual = 0.00075985149, No Iterations 3
GAMG:  Solving for p, Initial residual = 0.0015672562, Final residual = 0.00014555889, No Iterations 4
time step continuity errors : sum local = 3.895868e-06, global = -2.8083785e-07, cumulative = 0.0018600108
ExecutionTime = 62.41 s  ClockTime = 63 s

Time = 126

smoothSolver:  Solving for Ux, Initial residual = 0.0029588936, Final residual = 0.00021339119, No Iterations 3
smoothSolver:  Solving for Uy, Initial residual = 0.010633461, Final residual = 0.00075693228, No Iterations 3
GAMG:  Solving for p, Initial residual = 0.0015710669, Final residual = 0.00014585292, No Iterations 4
time step continuity errors : sum local = 3.8927359e-06, global = -3.0127672e-07, cumulative = 0.0018597095
ExecutionTime = 62.87 s  ClockTime = 64 s

Time = 127

smoothSolver:  Solving for Ux, Initial residual = 0.0029558166, Final residual = 0.00021322327, No Iterations 3
smoothSolver:  Solving for Uy, Initial residual = 0.010591461, Final residual = 0.00075388752, No Iterations 3
GAMG:  Solving for p, Initial residual = 0.0015728317, Final residual = 0.0001458366, No Iterations 4
time step continuity errors : sum local = 3.8812833e-06, global = -3.1827765e-07, cumulative = 0.0018593912
ExecutionTime = 63.34 s  ClockTime = 64 s

Time = 128

smoothSolver:  Solving for Ux, Initial residual = 0.0029528813, Final residual = 0.00021305977, No Iterations 3
smoothSolver:  Solving for Uy, Initial residual = 0.01054847, Final residual = 0.00075072244, No Iterations 3
GAMG:  Solving for p, Initial residual = 0.001574798, Final residual = 0.00014566025, No Iterations 4
time step continuity errors : sum local = 3.8656015e-06, global = -3.3233065e-07, cumulative = 0.0018590589
ExecutionTime = 63.81 s  ClockTime = 65 s

Time = 129

smoothSolver:  Solving for Ux, Initial residual = 0.0029500555, Final residual = 0.00021289925, No Iterations 3
smoothSolver:  Solving for Uy, Initial residual = 0.010504574, Final residual = 0.00074742354, No Iterations 3
GAMG:  Solving for p, Initial residual = 0.001575049, Final residual = 0.00014634449, No Iterations 4
time step continuity errors : sum local = 3.8727573e-06, global = -3.4732597e-07, cumulative = 0.0018587116
ExecutionTime = 64.27 s  ClockTime = 65 s

Time = 130

smoothSolver:  Solving for Ux, Initial residual = 0.0029473528, Final residual = 0.00021274316, No Iterations 3
smoothSolver:  Solving for Uy, Initial residual = 0.010459806, Final residual = 0.00074400111, No Iterations 3
GAMG:  Solving for p, Initial residual = 0.0015758009, Final residual = 0.00014732359, No Iterations 4
time step continuity errors : sum local = 3.8875985e-06, global = -3.5835244e-07, cumulative = 0.0018583532
ExecutionTime = 64.77 s  ClockTime = 66 s

Time = 131

smoothSolver:  Solving for Ux, Initial residual = 0.0029447658, Final residual = 0.00021258922, No Iterations 3
smoothSolver:  Solving for Uy, Initial residual = 0.010414439, Final residual = 0.00074051037, No Iterations 3
GAMG:  Solving for p, Initial residual = 0.0015750942, Final residual = 0.0001482694, No Iterations 4
time step continuity errors : sum local = 3.9013004e-06, global = -3.657087e-07, cumulative = 0.0018579875
ExecutionTime = 65.22 s  ClockTime = 66 s

Time = 132

smoothSolver:  Solving for Ux, Initial residual = 0.0029423135, Final residual = 0.00021243822, No Iterations 3
smoothSolver:  Solving for Uy, Initial residual = 0.010368459, Final residual = 0.0007369748, No Iterations 3
GAMG:  Solving for p, Initial residual = 0.0015760146, Final residual = 0.00014880004, No Iterations 4
time step continuity errors : sum local = 3.9038047e-06, global = -3.6890358e-07, cumulative = 0.0018576186
ExecutionTime = 65.69 s  ClockTime = 67 s

Time = 133

smoothSolver:  Solving for Ux, Initial residual = 0.0029399706, Final residual = 0.0002122948, No Iterations 3
smoothSolver:  Solving for Uy, Initial residual = 0.010322063, Final residual = 0.00073340068, No Iterations 3
GAMG:  Solving for p, Initial residual = 0.0015765607, Final residual = 0.00014887075, No Iterations 4
time step continuity errors : sum local = 3.8940774e-06, global = -3.6810064e-07, cumulative = 0.0018572505
ExecutionTime = 66.16 s  ClockTime = 67 s

Time = 134

smoothSolver:  Solving for Ux, Initial residual = 0.0029377548, Final residual = 0.00021217108, No Iterations 3
smoothSolver:  Solving for Uy, Initial residual = 0.010275438, Final residual = 0.0007297919, No Iterations 3
GAMG:  Solving for p, Initial residual = 0.0015769691, Final residual = 0.00014875613, No Iterations 4
time step continuity errors : sum local = 3.8793722e-06, global = -3.6567914e-07, cumulative = 0.0018568848
ExecutionTime = 66.62 s  ClockTime = 68 s

Time = 135

smoothSolver:  Solving for Ux, Initial residual = 0.0029356502, Final residual = 0.00021205938, No Iterations 3
smoothSolver:  Solving for Uy, Initial residual = 0.01022872, Final residual = 0.00072616232, No Iterations 3
GAMG:  Solving for p, Initial residual = 0.0015763945, Final residual = 0.00014818848, No Iterations 4
time step continuity errors : sum local = 3.8526595e-06, global = -3.6090977e-07, cumulative = 0.0018565239
ExecutionTime = 67.08 s  ClockTime = 68 s

Time = 136

smoothSolver:  Solving for Ux, Initial residual = 0.0029336708, Final residual = 0.00021196041, No Iterations 3
smoothSolver:  Solving for Uy, Initial residual = 0.010182108, Final residual = 0.00072257495, No Iterations 3
GAMG:  Solving for p, Initial residual = 0.0015762497, Final residual = 0.00014724685, No Iterations 4
time step continuity errors : sum local = 3.8160846e-06, global = -3.5368624e-07, cumulative = 0.0018561702
ExecutionTime = 67.55 s  ClockTime = 68 s

Time = 137

smoothSolver:  Solving for Ux, Initial residual = 0.0029317455, Final residual = 0.0002118643, No Iterations 3
smoothSolver:  Solving for Uy, Initial residual = 0.010135817, Final residual = 0.00071903118, No Iterations 3
GAMG:  Solving for p, Initial residual = 0.0015765225, Final residual = 0.00014614966, No Iterations 4
time step continuity errors : sum local = 3.7754256e-06, global = -3.4452433e-07, cumulative = 0.0018558257
ExecutionTime = 68.02 s  ClockTime = 69 s

Time = 138

smoothSolver:  Solving for Ux, Initial residual = 0.0029298715, Final residual = 0.00021176877, No Iterations 3
smoothSolver:  Solving for Uy, Initial residual = 0.010090037, Final residual = 0.00071554529, No Iterations 3
GAMG:  Solving for p, Initial residual = 0.0015775817, Final residual = 0.00014414415, No Iterations 4
time step continuity errors : sum local = 3.7113026e-06, global = -3.2764405e-07, cumulative = 0.0018554981
ExecutionTime = 68.48 s  ClockTime = 69 s

Time = 139

smoothSolver:  Solving for Ux, Initial residual = 0.002927995, Final residual = 0.00021167119, No Iterations 3
smoothSolver:  Solving for Uy, Initial residual = 0.010044849, Final residual = 0.00071212144, No Iterations 3
GAMG:  Solving for p, Initial residual = 0.0015783322, Final residual = 0.00014240969, No Iterations 4
time step continuity errors : sum local = 3.6541133e-06, global = -3.0932435e-07, cumulative = 0.0018551887
ExecutionTime = 68.95 s  ClockTime = 70 s

Time = 140

smoothSolver:  Solving for Ux, Initial residual = 0.0029261175, Final residual = 0.00021157063, No Iterations 3
smoothSolver:  Solving for Uy, Initial residual = 0.010000508, Final residual = 0.00070877178, No Iterations 3
GAMG:  Solving for p, Initial residual = 0.0015802122, Final residual = 0.00014109496, No Iterations 4
time step continuity errors : sum local = 3.6077918e-06, global = -2.908299e-07, cumulative = 0.0018548979
ExecutionTime = 69.42 s  ClockTime = 70 s

Time = 141

smoothSolver:  Solving for Ux, Initial residual = 0.00292422, Final residual = 0.00021146557, No Iterations 3
smoothSolver:  Solving for Uy, Initial residual = 0.0099571115, Final residual = 0.00070550707, No Iterations 3
GAMG:  Solving for p, Initial residual = 0.0015827813, Final residual = 0.00014020687, No Iterations 4
time step continuity errors : sum local = 3.5723087e-06, global = -2.7300453e-07, cumulative = 0.0018546249
ExecutionTime = 69.87 s  ClockTime = 71 s

Time = 142

smoothSolver:  Solving for Ux, Initial residual = 0.002922315, Final residual = 0.00021135624, No Iterations 3
smoothSolver:  Solving for Uy, Initial residual = 0.0099148881, Final residual = 0.00070232692, No Iterations 3
GAMG:  Solving for p, Initial residual = 0.0015866665, Final residual = 0.00013966754, No Iterations 4
time step continuity errors : sum local = 3.5454801e-06, global = -2.5578042e-07, cumulative = 0.0018543691
ExecutionTime = 70.34 s  ClockTime = 71 s

Time = 143

smoothSolver:  Solving for Ux, Initial residual = 0.0029203815, Final residual = 0.00021124189, No Iterations 3
smoothSolver:  Solving for Uy, Initial residual = 0.0098739568, Final residual = 0.00069924122, No Iterations 3
GAMG:  Solving for p, Initial residual = 0.0015914149, Final residual = 0.00013943954, No Iterations 4
time step continuity errors : sum local = 3.5262573e-06, global = -2.3912643e-07, cumulative = 0.00185413
ExecutionTime = 70.81 s  ClockTime = 72 s

Time = 144

smoothSolver:  Solving for Ux, Initial residual = 0.0029184207, Final residual = 0.00021112072, No Iterations 3
smoothSolver:  Solving for Uy, Initial residual = 0.009834343, Final residual = 0.00069626333, No Iterations 3
GAMG:  Solving for p, Initial residual = 0.0015965104, Final residual = 0.0001394076, No Iterations 4
time step continuity errors : sum local = 3.5116123e-06, global = -2.2229101e-07, cumulative = 0.0018539077
ExecutionTime = 71.27 s  ClockTime = 72 s

Time = 145

smoothSolver:  Solving for Ux, Initial residual = 0.0029164444, Final residual = 0.00021099447, No Iterations 3
smoothSolver:  Solving for Uy, Initial residual = 0.0097962716, Final residual = 0.00069338866, No Iterations 3
GAMG:  Solving for p, Initial residual = 0.0016015855, Final residual = 0.00013960129, No Iterations 4
time step continuity errors : sum local = 3.5022265e-06, global = -2.0560103e-07, cumulative = 0.0018537021
ExecutionTime = 71.73 s  ClockTime = 73 s

Time = 146

smoothSolver:  Solving for Ux, Initial residual = 0.0029144567, Final residual = 0.00021086248, No Iterations 3
smoothSolver:  Solving for Uy, Initial residual = 0.0097597344, Final residual = 0.00069063354, No Iterations 3
GAMG:  Solving for p, Initial residual = 0.0016065413, Final residual = 0.00013812148, No Iterations 4
time step continuity errors : sum local = 3.4505579e-06, global = -1.8720344e-07, cumulative = 0.0018535149
ExecutionTime = 72.2 s  ClockTime = 73 s

Time = 147

smoothSolver:  Solving for Ux, Initial residual = 0.0029124362, Final residual = 0.00021072603, No Iterations 3
smoothSolver:  Solving for Uy, Initial residual = 0.0097249503, Final residual = 0.00068799421, No Iterations 3
GAMG:  Solving for p, Initial residual = 0.001609915, Final residual = 0.00013787704, No Iterations 4
time step continuity errors : sum local = 3.4292363e-06, global = -1.6677839e-07, cumulative = 0.0018533481
ExecutionTime = 72.66 s  ClockTime = 74 s

Time = 148

smoothSolver:  Solving for Ux, Initial residual = 0.0029103892, Final residual = 0.00021058469, No Iterations 3
smoothSolver:  Solving for Uy, Initial residual = 0.0096918747, Final residual = 0.00068547513, No Iterations 3
GAMG:  Solving for p, Initial residual = 0.0016138427, Final residual = 0.00013856876, No Iterations 4
time step continuity errors : sum local = 3.4311247e-06, global = -1.4967714e-07, cumulative = 0.0018531984
ExecutionTime = 73.12 s  ClockTime = 74 s

Time = 149

smoothSolver:  Solving for Ux, Initial residual = 0.0029083348, Final residual = 0.00021043906, No Iterations 3
smoothSolver:  Solving for Uy, Initial residual = 0.0096604819, Final residual = 0.0006830783, No Iterations 3
GAMG:  Solving for p, Initial residual = 0.0016181741, Final residual = 0.00013962, No Iterations 4
time step continuity errors : sum local = 3.4413616e-06, global = -1.3589631e-07, cumulative = 0.0018530626
ExecutionTime = 73.59 s  ClockTime = 74 s

Time = 150

smoothSolver:  Solving for Ux, Initial residual = 0.0029062658, Final residual = 0.00021028913, No Iterations 3
smoothSolver:  Solving for Uy, Initial residual = 0.0096309551, Final residual = 0.00068080846, No Iterations 3
GAMG:  Solving for p, Initial residual = 0.0016221862, Final residual = 0.00014088831, No Iterations 4
time step continuity errors : sum local = 3.4561987e-06, global = -1.244821e-07, cumulative = 0.0018529381
ExecutionTime = 74.05 s  ClockTime = 75 s

Time = 151

smoothSolver:  Solving for Ux, Initial residual = 0.0029041886, Final residual = 0.00021013315, No Iterations 3
smoothSolver:  Solving for Uy, Initial residual = 0.0096033382, Final residual = 0.00067865571, No Iterations 3
GAMG:  Solving for p, Initial residual = 0.0016264488, Final residual = 0.00014226233, No Iterations 4
time step continuity errors : sum local = 3.4728004e-06, global = -1.1448728e-07, cumulative = 0.0018528236
ExecutionTime = 74.52 s  ClockTime = 75 s

Time = 152

smoothSolver:  Solving for Ux, Initial residual = 0.0029021015, Final residual = 0.00020997338, No Iterations 3
smoothSolver:  Solving for Uy, Initial residual = 0.0095776693, Final residual = 0.00067663749, No Iterations 3
GAMG:  Solving for p, Initial residual = 0.0016303845, Final residual = 0.00014363417, No Iterations 4
time step continuity errors : sum local = 3.4884963e-06, global = -1.0521405e-07, cumulative = 0.0018527184
ExecutionTime = 74.97 s  ClockTime = 76 s

Time = 153

smoothSolver:  Solving for Ux, Initial residual = 0.0029000315, Final residual = 0.00020981062, No Iterations 3
smoothSolver:  Solving for Uy, Initial residual = 0.0095537499, Final residual = 0.00067472109, No Iterations 3
GAMG:  Solving for p, Initial residual = 0.0016345355, Final residual = 0.00014501546, No Iterations 4
time step continuity errors : sum local = 3.503589e-06, global = -9.6546117e-08, cumulative = 0.0018526218
ExecutionTime = 75.73 s  ClockTime = 77 s

Time = 154

smoothSolver:  Solving for Ux, Initial residual = 0.0028979832, Final residual = 0.00020964569, No Iterations 3
smoothSolver:  Solving for Uy, Initial residual = 0.0095314747, Final residual = 0.00067292375, No Iterations 3
GAMG:  Solving for p, Initial residual = 0.0016387112, Final residual = 0.00014639185, No Iterations 4
time step continuity errors : sum local = 3.517753e-06, global = -8.8554945e-08, cumulative = 0.0018525333
ExecutionTime = 76.3 s  ClockTime = 77 s

Time = 155

smoothSolver:  Solving for Ux, Initial residual = 0.002895968, Final residual = 0.00020947897, No Iterations 3
smoothSolver:  Solving for Uy, Initial residual = 0.0095108169, Final residual = 0.00067121779, No Iterations 3
GAMG:  Solving for p, Initial residual = 0.0016438553, Final residual = 0.00014779591, No Iterations 4
time step continuity errors : sum local = 3.5317792e-06, global = -8.1358137e-08, cumulative = 0.0018524519
ExecutionTime = 76.83 s  ClockTime = 78 s

Time = 156

smoothSolver:  Solving for Ux, Initial residual = 0.0028940036, Final residual = 0.00020931231, No Iterations 3
smoothSolver:  Solving for Uy, Initial residual = 0.0094916171, Final residual = 0.00066959345, No Iterations 3
GAMG:  Solving for p, Initial residual = 0.0016496605, Final residual = 0.00014920125, No Iterations 4
time step continuity errors : sum local = 3.5449916e-06, global = -7.5011357e-08, cumulative = 0.0018523769
ExecutionTime = 77.33 s  ClockTime = 78 s

Time = 157

smoothSolver:  Solving for Ux, Initial residual = 0.0028920913, Final residual = 0.00020914482, No Iterations 3
smoothSolver:  Solving for Uy, Initial residual = 0.0094737153, Final residual = 0.00066806181, No Iterations 3
GAMG:  Solving for p, Initial residual = 0.0016562133, Final residual = 0.00015062857, No Iterations 4
time step continuity errors : sum local = 3.5578833e-06, global = -6.9434076e-08, cumulative = 0.0018523075
ExecutionTime = 77.83 s  ClockTime = 79 s

Time = 158

smoothSolver:  Solving for Ux, Initial residual = 0.0028902374, Final residual = 0.0002089777, No Iterations 3
smoothSolver:  Solving for Uy, Initial residual = 0.0094568791, Final residual = 0.00066658862, No Iterations 3
GAMG:  Solving for p, Initial residual = 0.0016635848, Final residual = 0.00015207694, No Iterations 4
time step continuity errors : sum local = 3.5704127e-06, global = -6.4604136e-08, cumulative = 0.0018522429
ExecutionTime = 78.33 s  ClockTime = 79 s

Time = 159

smoothSolver:  Solving for Ux, Initial residual = 0.0028884623, Final residual = 0.00020881247, No Iterations 3
smoothSolver:  Solving for Uy, Initial residual = 0.009441089, Final residual = 0.00066518698, No Iterations 3
GAMG:  Solving for p, Initial residual = 0.0016715082, Final residual = 0.00015331182, No Iterations 4
time step continuity errors : sum local = 3.5770853e-06, global = -5.8455023e-08, cumulative = 0.0018521844
ExecutionTime = 78.8 s  ClockTime = 80 s

Time = 160

smoothSolver:  Solving for Ux, Initial residual = 0.0028867659, Final residual = 0.00020865002, No Iterations 3
smoothSolver:  Solving for Uy, Initial residual = 0.0094263146, Final residual = 0.00066384397, No Iterations 3
GAMG:  Solving for p, Initial residual = 0.0016799305, Final residual = 0.00015528307, No Iterations 4
time step continuity errors : sum local = 3.6000018e-06, global = -5.798431e-08, cumulative = 0.0018521264
ExecutionTime = 79.3 s  ClockTime = 80 s

Time = 161

smoothSolver:  Solving for Ux, Initial residual = 0.0028851752, Final residual = 0.00020848982, No Iterations 3
smoothSolver:  Solving for Uy, Initial residual = 0.0094124349, Final residual = 0.00066254907, No Iterations 3
GAMG:  Solving for p, Initial residual = 0.001689418, Final residual = 0.00015704272, No Iterations 4
time step continuity errors : sum local = 3.6171471e-06, global = -5.6789523e-08, cumulative = 0.0018520696
ExecutionTime = 79.77 s  ClockTime = 81 s

Time = 162

[...]
ExecutionTime = 733.45 s  ClockTime = 741 s

Time = 1493

smoothSolver:  Solving for Ux, Initial residual = 5.0290819e-06, Final residual = 8.8771537e-07, No Iterations 2
smoothSolver:  Solving for Uy, Initial residual = 1.1965982e-05, Final residual = 9.0783165e-07, No Iterations 3
GAMG:  Solving for p, Initial residual = 9.9348524e-06, Final residual = 9.8956477e-07, No Iterations 3
time step continuity errors : sum local = 3.4699825e-09, global = 7.5126722e-11, cumulative = 0.0018292496
ExecutionTime = 733.88 s  ClockTime = 742 s

Time = 1494

smoothSolver:  Solving for Ux, Initial residual = 5.0094186e-06, Final residual = 8.8404763e-07, No Iterations 2
smoothSolver:  Solving for Uy, Initial residual = 1.1904346e-05, Final residual = 9.0328618e-07, No Iterations 3
GAMG:  Solving for p, Initial residual = 9.8611204e-06, Final residual = 9.8503936e-07, No Iterations 3
time step continuity errors : sum local = 3.4541104e-09, global = 8.4310221e-11, cumulative = 0.0018292497
ExecutionTime = 734.3 s  ClockTime = 742 s

Time = 1495

smoothSolver:  Solving for Ux, Initial residual = 4.9892426e-06, Final residual = 8.8027238e-07, No Iterations 2
smoothSolver:  Solving for Uy, Initial residual = 1.1844126e-05, Final residual = 8.9885315e-07, No Iterations 3
GAMG:  Solving for p, Initial residual = 9.7834869e-06, Final residual = 9.8012924e-07, No Iterations 3
time step continuity errors : sum local = 3.4368886e-09, global = 9.2792353e-11, cumulative = 0.0018292498
ExecutionTime = 734.74 s  ClockTime = 742 s

Time = 1496

smoothSolver:  Solving for Ux, Initial residual = 4.9685201e-06, Final residual = 8.7639282e-07, No Iterations 2
smoothSolver:  Solving for Uy, Initial residual = 1.1785288e-05, Final residual = 8.9452748e-07, No Iterations 3
GAMG:  Solving for p, Initial residual = 9.7037601e-06, Final residual = 9.7490851e-07, No Iterations 3
time step continuity errors : sum local = 3.4185772e-09, global = 1.0043608e-10, cumulative = 0.0018292499
ExecutionTime = 735.16 s  ClockTime = 743 s

Time = 1497

smoothSolver:  Solving for Ux, Initial residual = 4.9472136e-06, Final residual = 8.7241998e-07, No Iterations 2
smoothSolver:  Solving for Uy, Initial residual = 1.1727792e-05, Final residual = 8.9030586e-07, No Iterations 3
GAMG:  Solving for p, Initial residual = 9.6203794e-06, Final residual = 9.6935077e-07, No Iterations 3
time step continuity errors : sum local = 3.3990835e-09, global = 1.0717766e-10, cumulative = 0.00182925
ExecutionTime = 735.6 s  ClockTime = 743 s

Time = 1498

smoothSolver:  Solving for Ux, Initial residual = 4.925347e-06, Final residual = 8.6835513e-07, No Iterations 2
smoothSolver:  Solving for Uy, Initial residual = 1.1671566e-05, Final residual = 8.8618416e-07, No Iterations 3
GAMG:  Solving for p, Initial residual = 9.533823e-06, Final residual = 9.6337066e-07, No Iterations 3
time step continuity errors : sum local = 3.3781085e-09, global = 1.1300099e-10, cumulative = 0.0018292501
ExecutionTime = 736.02 s  ClockTime = 744 s

Time = 1499

smoothSolver:  Solving for Ux, Initial residual = 4.9029427e-06, Final residual = 8.6420592e-07, No Iterations 2
smoothSolver:  Solving for Uy, Initial residual = 1.1616625e-05, Final residual = 8.8215599e-07, No Iterations 3
GAMG:  Solving for p, Initial residual = 9.4441086e-06, Final residual = 9.5697331e-07, No Iterations 3
time step continuity errors : sum local = 3.35567e-09, global = 1.1793487e-10, cumulative = 0.0018292502
ExecutionTime = 736.45 s  ClockTime = 744 s

Time = 1500

smoothSolver:  Solving for Ux, Initial residual = 4.8800077e-06, Final residual = 8.5997942e-07, No Iterations 2
smoothSolver:  Solving for Uy, Initial residual = 1.1562856e-05, Final residual = 8.7822469e-07, No Iterations 3
GAMG:  Solving for p, Initial residual = 9.3517313e-06, Final residual = 9.5016636e-07, No Iterations 3
time step continuity errors : sum local = 3.3317949e-09, global = 1.2204757e-10, cumulative = 0.0018292503
ExecutionTime = 737.53 s  ClockTime = 745 s

    functionObjects::vorticity vorticity1 writing field: vorticityField
Time = 1501

smoothSolver:  Solving for Ux, Initial residual = 4.856621e-06, Final residual = 8.5568216e-07, No Iterations 2
smoothSolver:  Solving for Uy, Initial residual = 1.1510258e-05, Final residual = 8.7437897e-07, No Iterations 3
GAMG:  Solving for p, Initial residual = 9.256208e-06, Final residual = 9.4287903e-07, No Iterations 3
time step continuity errors : sum local = 3.3062353e-09, global = 1.2543478e-10, cumulative = 0.0018292504
ExecutionTime = 738.26 s  ClockTime = 746 s

Time = 1502

smoothSolver:  Solving for Ux, Initial residual = 4.8327844e-06, Final residual = 8.5131177e-07, No Iterations 2
smoothSolver:  Solving for Uy, Initial residual = 1.1458828e-05, Final residual = 8.7062124e-07, No Iterations 3
GAMG:  Solving for p, Initial residual = 9.1575024e-06, Final residual = 9.3519565e-07, No Iterations 3
time step continuity errors : sum local = 3.2792867e-09, global = 1.2820837e-10, cumulative = 0.0018292506
ExecutionTime = 738.7 s  ClockTime = 746 s

Time = 1503

smoothSolver:  Solving for Ux, Initial residual = 4.8085122e-06, Final residual = 8.4687683e-07, No Iterations 2
smoothSolver:  Solving for Uy, Initial residual = 1.1408406e-05, Final residual = 8.6694115e-07, No Iterations 3
GAMG:  Solving for p, Initial residual = 9.0569811e-06, Final residual = 9.2677942e-07, No Iterations 3
time step continuity errors : sum local = 3.2497684e-09, global = 1.30323e-10, cumulative = 0.0018292507
ExecutionTime = 739.12 s  ClockTime = 747 s

Time = 1504

smoothSolver:  Solving for Ux, Initial residual = 4.7838455e-06, Final residual = 8.4238661e-07, No Iterations 2
smoothSolver:  Solving for Uy, Initial residual = 1.1359045e-05, Final residual = 8.6333785e-07, No Iterations 3
GAMG:  Solving for p, Initial residual = 8.9534631e-06, Final residual = 9.1811395e-07, No Iterations 3
time step continuity errors : sum local = 3.2193757e-09, global = 1.3148385e-10, cumulative = 0.0018292508
ExecutionTime = 739.57 s  ClockTime = 747 s

Time = 1505

smoothSolver:  Solving for Ux, Initial residual = 4.7588409e-06, Final residual = 8.3784603e-07, No Iterations 2
smoothSolver:  Solving for Uy, Initial residual = 1.1310632e-05, Final residual = 8.5980242e-07, No Iterations 3
GAMG:  Solving for p, Initial residual = 8.8479279e-06, Final residual = 9.0913041e-07, No Iterations 3
time step continuity errors : sum local = 3.1878679e-09, global = 1.3227172e-10, cumulative = 0.001829251
ExecutionTime = 739.99 s  ClockTime = 748 s

Time = 1506

smoothSolver:  Solving for Ux, Initial residual = 4.7335151e-06, Final residual = 8.3325723e-07, No Iterations 2
smoothSolver:  Solving for Uy, Initial residual = 1.1263081e-05, Final residual = 8.5632299e-07, No Iterations 3
GAMG:  Solving for p, Initial residual = 8.7399081e-06, Final residual = 8.9984695e-07, No Iterations 3
time step continuity errors : sum local = 3.1553085e-09, global = 1.3286454e-10, cumulative = 0.0018292511
ExecutionTime = 740.44 s  ClockTime = 748 s

Time = 1507

smoothSolver:  Solving for Ux, Initial residual = 4.7078764e-06, Final residual = 8.2862967e-07, No Iterations 2
smoothSolver:  Solving for Uy, Initial residual = 1.1216197e-05, Final residual = 8.528936e-07, No Iterations 3
GAMG:  Solving for p, Initial residual = 8.6298275e-06, Final residual = 8.9035569e-07, No Iterations 3
time step continuity errors : sum local = 3.1220206e-09, global = 1.3338383e-10, cumulative = 0.0018292512
ExecutionTime = 740.86 s  ClockTime = 749 s

Time = 1508

smoothSolver:  Solving for Ux, Initial residual = 4.681991e-06, Final residual = 8.2396638e-07, No Iterations 2
smoothSolver:  Solving for Uy, Initial residual = 1.1170001e-05, Final residual = 8.4950091e-07, No Iterations 3
GAMG:  Solving for p, Initial residual = 8.5177067e-06, Final residual = 8.8064433e-07, No Iterations 3
time step continuity errors : sum local = 3.087961e-09, global = 1.3390398e-10, cumulative = 0.0018292514
ExecutionTime = 741.3 s  ClockTime = 749 s

Time = 1509

smoothSolver:  Solving for Ux, Initial residual = 4.6558881e-06, Final residual = 8.1927274e-07, No Iterations 2
smoothSolver:  Solving for Uy, Initial residual = 1.112436e-05, Final residual = 8.4614094e-07, No Iterations 3
GAMG:  Solving for p, Initial residual = 8.4046302e-06, Final residual = 8.7074431e-07, No Iterations 3
time step continuity errors : sum local = 3.0532401e-09, global = 1.3446434e-10, cumulative = 0.0018292515
ExecutionTime = 741.74 s  ClockTime = 749 s

Time = 1510

smoothSolver:  Solving for Ux, Initial residual = 4.6295779e-06, Final residual = 8.145576e-07, No Iterations 2
smoothSolver:  Solving for Uy, Initial residual = 1.1079129e-05, Final residual = 8.4279625e-07, No Iterations 3
GAMG:  Solving for p, Initial residual = 8.2903949e-06, Final residual = 8.6061726e-07, No Iterations 3
time step continuity errors : sum local = 3.0177232e-09, global = 1.3507889e-10, cumulative = 0.0018292516
ExecutionTime = 742.16 s  ClockTime = 750 s

Time = 1511

smoothSolver:  Solving for Ux, Initial residual = 4.6031183e-06, Final residual = 8.098218e-07, No Iterations 2
smoothSolver:  Solving for Uy, Initial residual = 1.1034191e-05, Final residual = 8.3945936e-07, No Iterations 3
GAMG:  Solving for p, Initial residual = 8.175835e-06, Final residual = 8.502803e-07, No Iterations 3
time step continuity errors : sum local = 2.9814704e-09, global = 1.3574224e-10, cumulative = 0.0018292518
ExecutionTime = 742.58 s  ClockTime = 750 s

Time = 1512

smoothSolver:  Solving for Ux, Initial residual = 4.5765143e-06, Final residual = 8.0507338e-07, No Iterations 2
smoothSolver:  Solving for Uy, Initial residual = 1.0989423e-05, Final residual = 8.3610238e-07, No Iterations 3
GAMG:  Solving for p, Initial residual = 8.0599722e-06, Final residual = 8.3968034e-07, No Iterations 3
time step continuity errors : sum local = 2.9442955e-09, global = 1.3643326e-10, cumulative = 0.0018292519
ExecutionTime = 743.02 s  ClockTime = 751 s

Time = 1513

smoothSolver:  Solving for Ux, Initial residual = 4.5498045e-06, Final residual = 8.0031766e-07, No Iterations 2
smoothSolver:  Solving for Uy, Initial residual = 1.0944633e-05, Final residual = 8.3269748e-07, No Iterations 3
GAMG:  Solving for p, Initial residual = 7.944362e-06, Final residual = 8.2891221e-07, No Iterations 3
time step continuity errors : sum local = 2.9065309e-09, global = 1.3711771e-10, cumulative = 0.001829252
ExecutionTime = 743.46 s  ClockTime = 751 s

Time = 1514

smoothSolver:  Solving for Ux, Initial residual = 4.5230235e-06, Final residual = 7.9555824e-07, No Iterations 2
smoothSolver:  Solving for Uy, Initial residual = 1.0899528e-05, Final residual = 8.2923129e-07, No Iterations 3
GAMG:  Solving for p, Initial residual = 7.8285172e-06, Final residual = 8.1792298e-07, No Iterations 3
time step continuity errors : sum local = 2.8679912e-09, global = 1.3775091e-10, cumulative = 0.0018292522
ExecutionTime = 743.88 s  ClockTime = 752 s

Time = 1515

smoothSolver:  Solving for Ux, Initial residual = 4.4962011e-06, Final residual = 7.9079643e-07, No Iterations 2
smoothSolver:  Solving for Uy, Initial residual = 1.085401e-05, Final residual = 8.2570426e-07, No Iterations 3
GAMG:  Solving for p, Initial residual = 7.714209e-06, Final residual = 8.0664764e-07, No Iterations 3
time step continuity errors : sum local = 2.8284483e-09, global = 1.3828091e-10, cumulative = 0.0018292523
ExecutionTime = 744.32 s  ClockTime = 752 s

Time = 1516

smoothSolver:  Solving for Ux, Initial residual = 4.4693583e-06, Final residual = 7.8604185e-07, No Iterations 2
smoothSolver:  Solving for Uy, Initial residual = 1.0807916e-05, Final residual = 8.2210848e-07, No Iterations 3
GAMG:  Solving for p, Initial residual = 7.6015055e-06, Final residual = 7.9522811e-07, No Iterations 3
time step continuity errors : sum local = 2.7883998e-09, global = 1.3867602e-10, cumulative = 0.0018292525
ExecutionTime = 744.74 s  ClockTime = 752 s

Time = 1517

smoothSolver:  Solving for Ux, Initial residual = 4.4425224e-06, Final residual = 7.8129746e-07, No Iterations 2
smoothSolver:  Solving for Uy, Initial residual = 1.0760972e-05, Final residual = 8.1844545e-07, No Iterations 3
GAMG:  Solving for p, Initial residual = 7.490839e-06, Final residual = 7.8374721e-07, No Iterations 3
time step continuity errors : sum local = 2.7481362e-09, global = 1.3886249e-10, cumulative = 0.0018292526
ExecutionTime = 745.14 s  ClockTime = 753 s

Time = 1518

smoothSolver:  Solving for Ux, Initial residual = 4.4157112e-06, Final residual = 7.7657059e-07, No Iterations 2
smoothSolver:  Solving for Uy, Initial residual = 1.0713181e-05, Final residual = 8.1471335e-07, No Iterations 3
GAMG:  Solving for p, Initial residual = 7.3846686e-06, Final residual = 7.722884e-07, No Iterations 3
time step continuity errors : sum local = 2.7079502e-09, global = 1.3879101e-10, cumulative = 0.0018292527
ExecutionTime = 745.58 s  ClockTime = 753 s

Time = 1519

smoothSolver:  Solving for Ux, Initial residual = 4.3889702e-06, Final residual = 7.7186344e-07, No Iterations 2
smoothSolver:  Solving for Uy, Initial residual = 1.0664522e-05, Final residual = 8.109038e-07, No Iterations 3
GAMG:  Solving for p, Initial residual = 7.2833245e-06, Final residual = 7.6082103e-07, No Iterations 3
time step continuity errors : sum local = 2.6677343e-09, global = 1.3841756e-10, cumulative = 0.0018292529
ExecutionTime = 746.01 s  ClockTime = 754 s

Time = 1520

smoothSolver:  Solving for Ux, Initial residual = 4.3623195e-06, Final residual = 7.6717677e-07, No Iterations 2
smoothSolver:  Solving for Uy, Initial residual = 1.0614951e-05, Final residual = 8.0701429e-07, No Iterations 3
GAMG:  Solving for p, Initial residual = 7.1874936e-06, Final residual = 7.4960689e-07, No Iterations 3
time step continuity errors : sum local = 2.6284064e-09, global = 1.3771173e-10, cumulative = 0.001829253
ExecutionTime = 746.44 s  ClockTime = 754 s

Time = 1521

smoothSolver:  Solving for Ux, Initial residual = 4.3357682e-06, Final residual = 7.6252005e-07, No Iterations 2
smoothSolver:  Solving for Uy, Initial residual = 1.0564513e-05, Final residual = 8.030409e-07, No Iterations 3
GAMG:  Solving for p, Initial residual = 7.0978425e-06, Final residual = 7.3848767e-07, No Iterations 3
time step continuity errors : sum local = 2.5894115e-09, global = 1.3664647e-10, cumulative = 0.0018292532
ExecutionTime = 746.87 s  ClockTime = 755 s

Time = 1522

smoothSolver:  Solving for Ux, Initial residual = 4.3093669e-06, Final residual = 7.5789478e-07, No Iterations 2
smoothSolver:  Solving for Uy, Initial residual = 1.0513037e-05, Final residual = 7.9898864e-07, No Iterations 3
GAMG:  Solving for p, Initial residual = 7.0139578e-06, Final residual = 7.2756221e-07, No Iterations 3
time step continuity errors : sum local = 2.551096e-09, global = 1.3516646e-10, cumulative = 0.0018292533
ExecutionTime = 747.29 s  ClockTime = 755 s

Time = 1523

smoothSolver:  Solving for Ux, Initial residual = 4.2831187e-06, Final residual = 7.5330747e-07, No Iterations 2
smoothSolver:  Solving for Uy, Initial residual = 1.0460568e-05, Final residual = 7.9484716e-07, No Iterations 3
GAMG:  Solving for p, Initial residual = 6.9361831e-06, Final residual = 7.1685538e-07, No Iterations 3
time step continuity errors : sum local = 2.5135475e-09, global = 1.3334908e-10, cumulative = 0.0018292534
ExecutionTime = 747.73 s  ClockTime = 755 s

Time = 1524

smoothSolver:  Solving for Ux, Initial residual = 4.2570737e-06, Final residual = 7.4876164e-07, No Iterations 2
smoothSolver:  Solving for Uy, Initial residual = 1.0407085e-05, Final residual = 7.9062839e-07, No Iterations 3
GAMG:  Solving for p, Initial residual = 6.872798e-06, Final residual = 7.0650016e-07, No Iterations 3
time step continuity errors : sum local = 2.477232e-09, global = 1.3123018e-10, cumulative = 0.0018292536
ExecutionTime = 748.15 s  ClockTime = 756 s

Time = 1525

smoothSolver:  Solving for Ux, Initial residual = 4.2312471e-06, Final residual = 7.4426158e-07, No Iterations 2
smoothSolver:  Solving for Uy, Initial residual = 1.0352546e-05, Final residual = 7.8633708e-07, No Iterations 3
GAMG:  Solving for p, Initial residual = 6.8254385e-06, Final residual = 6.9665029e-07, No Iterations 3
time step continuity errors : sum local = 2.4426888e-09, global = 1.2885317e-10, cumulative = 0.0018292537
ExecutionTime = 748.59 s  ClockTime = 756 s

Time = 1526

smoothSolver:  Solving for Ux, Initial residual = 4.2056662e-06, Final residual = 7.3981094e-07, No Iterations 2
smoothSolver:  Solving for Uy, Initial residual = 1.0296953e-05, Final residual = 7.8197879e-07, No Iterations 3
GAMG:  Solving for p, Initial residual = 6.791062e-06, Final residual = 6.8755614e-07, No Iterations 3
time step continuity errors : sum local = 2.4107956e-09, global = 1.2621755e-10, cumulative = 0.0018292538
ExecutionTime = 749.01 s  ClockTime = 757 s

Time = 1527

smoothSolver:  Solving for Ux, Initial residual = 4.1803483e-06, Final residual = 7.3541139e-07, No Iterations 2
smoothSolver:  Solving for Uy, Initial residual = 1.0240487e-05, Final residual = 7.7756323e-07, No Iterations 3
GAMG:  Solving for p, Initial residual = 6.7711136e-06, Final residual = 6.7921568e-07, No Iterations 3
time step continuity errors : sum local = 2.3815454e-09, global = 1.2346909e-10, cumulative = 0.0018292539
ExecutionTime = 749.45 s  ClockTime = 757 s

Time = 1528

smoothSolver:  Solving for Ux, Initial residual = 4.1552969e-06, Final residual = 7.3106855e-07, No Iterations 2
smoothSolver:  Solving for Uy, Initial residual = 1.0183223e-05, Final residual = 7.7309501e-07, No Iterations 3
GAMG:  Solving for p, Initial residual = 6.7613e-06, Final residual = 6.7172342e-07, No Iterations 3
time step continuity errors : sum local = 2.3552695e-09, global = 1.2082489e-10, cumulative = 0.0018292541
ExecutionTime = 749.87 s  ClockTime = 758 s

Time = 1529

smoothSolver:  Solving for Ux, Initial residual = 4.1305397e-06, Final residual = 7.2678291e-07, No Iterations 2
smoothSolver:  Solving for Uy, Initial residual = 1.0125233e-05, Final residual = 7.6858254e-07, No Iterations 3
GAMG:  Solving for p, Initial residual = 6.7583141e-06, Final residual = 6.6531689e-07, No Iterations 3
time step continuity errors : sum local = 2.3328008e-09, global = 1.1802741e-10, cumulative = 0.0018292542
ExecutionTime = 750.31 s  ClockTime = 758 s

Time = 1530

smoothSolver:  Solving for Ux, Initial residual = 4.1060976e-06, Final residual = 7.2256117e-07, No Iterations 2
smoothSolver:  Solving for Uy, Initial residual = 1.0066628e-05, Final residual = 7.6403016e-07, No Iterations 3
GAMG:  Solving for p, Initial residual = 6.761375e-06, Final residual = 6.5995786e-07, No Iterations 3
time step continuity errors : sum local = 2.3140053e-09, global = 1.1522959e-10, cumulative = 0.0018292543
ExecutionTime = 750.75 s  ClockTime = 758 s

Time = 1531

smoothSolver:  Solving for Ux, Initial residual = 4.0819936e-06, Final residual = 7.1840425e-07, No Iterations 2
smoothSolver:  Solving for Uy, Initial residual = 1.0007491e-05, Final residual = 7.5944968e-07, No Iterations 3
GAMG:  Solving for p, Initial residual = 6.7711831e-06, Final residual = 6.5578143e-07, No Iterations 3
time step continuity errors : sum local = 2.2993565e-09, global = 1.1244749e-10, cumulative = 0.0018292544
ExecutionTime = 751.17 s  ClockTime = 759 s

Time = 1532

smoothSolver:  Solving for Ux, Initial residual = 4.0582496e-06, Final residual = 7.1431587e-07, No Iterations 2
smoothSolver:  Solving for Uy, Initial residual = 9.9479064e-06, Final residual = 7.5484346e-07, No Iterations 3
GAMG:  Solving for p, Initial residual = 6.7845173e-06, Final residual = 6.5280056e-07, No Iterations 3
time step continuity errors : sum local = 2.2888999e-09, global = 1.0969455e-10, cumulative = 0.0018292545
ExecutionTime = 751.61 s  ClockTime = 759 s


SIMPLE solution converged in 1532 iterations

End

