/*---------------------------------------------------------------------------*\
| =========                 |                                                 |
| \\      /  F ield         | OpenFOAM: The Open Source CFD Toolbox           |
|  \\    /   O peration     | Version:  2112                                  |
|   \\  /    A nd           | Website:  www.openfoam.com                      |
|    \\/     M anipulation  |                                                 |
\*---------------------------------------------------------------------------*/
Build  : _80318542-20220301 OPENFOAM=2112 patch=220310 version=2112
Arch   : "LSB;label=32;scalar=64"
Exec   : simpleFoam
Date   : Nov 01 2022
Time   : 21:52:54
Host   : DESKTOP-23DV0OJ
PID    : 19600
I/O    : uncollated
Case   : /home/pratik/squre_cylinder_60_40
nProcs : 1
trapFpe: Floating point exception trapping enabled (FOAM_SIGFPE).
fileModificationChecking : Monitoring run-time modified files using timeStampMaster (fileModificationSkew 5, maxFileModificationPolls 20)
allowSystemOperations : Allowing user-supplied system call operations

// * * * * * * * * * * * * * * * * * * * * * * * * * * * * * * * * * * * * * //
Create time

Create mesh for time = 0


SIMPLE: convergence criteria
    field p	 tolerance 1e-05
    field U	 tolerance 1e-05
    field "(k|epsilon|omega|f|v2)"	 tolerance 1e-05

Reading field p

Reading field U

Reading/calculating face flux field phi

Selecting incompressible transport model Newtonian
Selecting turbulence model type laminar
Selecting laminar stress model Stokes
No MRF models present

No finite volume options present

Starting time loop

Time = 1

smoothSolver:  Solving for Ux, Initial residual = 1, Final residual = 0.074060314, No Iterations 2
smoothSolver:  Solving for Uy, Initial residual = 0.066786918, Final residual = 0.0010060377, No Iterations 2
GAMG:  Solving for p, Initial residual = 1, Final residual = 0.076408607, No Iterations 14
time step continuity errors : sum local = 0.0048887508, global = -0.00044142806, cumulative = -0.00044142806
ExecutionTime = 3 s  ClockTime = 6 s

Time = 2

smoothSolver:  Solving for Ux, Initial residual = 0.68318001, Final residual = 0.045947128, No Iterations 3
smoothSolver:  Solving for Uy, Initial residual = 0.2430422, Final residual = 0.016278006, No Iterations 3
GAMG:  Solving for p, Initial residual = 0.0016286699, Final residual = 9.8913847e-05, No Iterations 14
time step continuity errors : sum local = 0.0045124504, global = 8.437346e-05, cumulative = -0.0003570546
ExecutionTime = 3.68 s  ClockTime = 7 s

Time = 3

smoothSolver:  Solving for Ux, Initial residual = 0.10492674, Final residual = 0.0065921002, No Iterations 3
smoothSolver:  Solving for Uy, Initial residual = 0.061975428, Final residual = 0.0038603082, No Iterations 3
GAMG:  Solving for p, Initial residual = 0.011164377, Final residual = 0.000840031, No Iterations 7
time step continuity errors : sum local = 0.0030707304, global = 0.00017549868, cumulative = -0.00018155592
ExecutionTime = 4.2 s  ClockTime = 7 s

Time = 4

smoothSolver:  Solving for Ux, Initial residual = 0.011730152, Final residual = 0.0004599421, No Iterations 3
smoothSolver:  Solving for Uy, Initial residual = 0.037759033, Final residual = 0.0023830161, No Iterations 3
GAMG:  Solving for p, Initial residual = 0.11931436, Final residual = 0.011906056, No Iterations 3
time step continuity errors : sum local = 0.0023392637, global = 8.6178631e-05, cumulative = -9.5377288e-05
ExecutionTime = 4.6 s  ClockTime = 8 s

Time = 5

smoothSolver:  Solving for Ux, Initial residual = 0.011117715, Final residual = 0.00053458136, No Iterations 3
smoothSolver:  Solving for Uy, Initial residual = 0.035335509, Final residual = 0.0022656865, No Iterations 3
GAMG:  Solving for p, Initial residual = 0.076484372, Final residual = 0.0061561668, No Iterations 2
time step continuity errors : sum local = 0.001218949, global = 6.1667873e-05, cumulative = -3.3709414e-05
ExecutionTime = 4.99 s  ClockTime = 8 s

Time = 6

smoothSolver:  Solving for Ux, Initial residual = 0.0096045082, Final residual = 0.00049312871, No Iterations 3
smoothSolver:  Solving for Uy, Initial residual = 0.032855696, Final residual = 0.0021368099, No Iterations 3
GAMG:  Solving for p, Initial residual = 0.061073823, Final residual = 0.0038385944, No Iterations 4
time step continuity errors : sum local = 0.00072992742, global = -0.00012227177, cumulative = -0.00015598118
ExecutionTime = 5.43 s  ClockTime = 9 s

Time = 7

smoothSolver:  Solving for Ux, Initial residual = 0.0065467077, Final residual = 0.00032645382, No Iterations 3
smoothSolver:  Solving for Uy, Initial residual = 0.029166049, Final residual = 0.0019127066, No Iterations 3
GAMG:  Solving for p, Initial residual = 0.090931275, Final residual = 0.0066825384, No Iterations 4
time step continuity errors : sum local = 0.00058763133, global = -0.00010291701, cumulative = -0.00025889819
ExecutionTime = 5.89 s  ClockTime = 9 s

Time = 8

smoothSolver:  Solving for Ux, Initial residual = 0.0054419672, Final residual = 0.00028910407, No Iterations 3
smoothSolver:  Solving for Uy, Initial residual = 0.02852928, Final residual = 0.0018859186, No Iterations 3
GAMG:  Solving for p, Initial residual = 0.063531856, Final residual = 0.0032668131, No Iterations 4
time step continuity errors : sum local = 0.00030059828, global = -5.6051714e-05, cumulative = -0.00031494991
ExecutionTime = 6.34 s  ClockTime = 9 s

Time = 9

smoothSolver:  Solving for Ux, Initial residual = 0.0056588225, Final residual = 0.00032729232, No Iterations 3
smoothSolver:  Solving for Uy, Initial residual = 0.027951742, Final residual = 0.0018555242, No Iterations 3
GAMG:  Solving for p, Initial residual = 0.03303532, Final residual = 0.0010984491, No Iterations 2
time step continuity errors : sum local = 0.00014572445, global = -1.5988815e-05, cumulative = -0.00033093872
ExecutionTime = 6.76 s  ClockTime = 10 s

Time = 10

smoothSolver:  Solving for Ux, Initial residual = 0.0053790545, Final residual = 0.00032003727, No Iterations 3
smoothSolver:  Solving for Uy, Initial residual = 0.027410171, Final residual = 0.0018264906, No Iterations 3
GAMG:  Solving for p, Initial residual = 0.027157229, Final residual = 0.0017431751, No Iterations 4
time step continuity errors : sum local = 0.00022302133, global = 4.2631343e-05, cumulative = -0.00028830738
ExecutionTime = 7.2 s  ClockTime = 10 s

Time = 11

smoothSolver:  Solving for Ux, Initial residual = 0.0046883762, Final residual = 0.00027838384, No Iterations 3
smoothSolver:  Solving for Uy, Initial residual = 0.027111601, Final residual = 0.0018125965, No Iterations 3
GAMG:  Solving for p, Initial residual = 0.030003303, Final residual = 0.001937152, No Iterations 5
time step continuity errors : sum local = 0.0001794482, global = -3.894342e-06, cumulative = -0.00029220172
ExecutionTime = 7.65 s  ClockTime = 11 s

Time = 12

smoothSolver:  Solving for Ux, Initial residual = 0.0042860904, Final residual = 0.00025120734, No Iterations 3
smoothSolver:  Solving for Uy, Initial residual = 0.026236817, Final residual = 0.0017589589, No Iterations 3
GAMG:  Solving for p, Initial residual = 0.050996246, Final residual = 0.0020875306, No Iterations 2
time step continuity errors : sum local = 8.9936719e-05, global = 5.0332343e-06, cumulative = -0.00028716849
ExecutionTime = 8.04 s  ClockTime = 11 s

Time = 13

smoothSolver:  Solving for Ux, Initial residual = 0.0041296327, Final residual = 0.00024665006, No Iterations 3
smoothSolver:  Solving for Uy, Initial residual = 0.025751389, Final residual = 0.0017309039, No Iterations 3
GAMG:  Solving for p, Initial residual = 0.043102383, Final residual = 0.0018566253, No Iterations 4
time step continuity errors : sum local = 7.4968573e-05, global = -1.0908479e-05, cumulative = -0.00029807697
ExecutionTime = 8.48 s  ClockTime = 12 s

Time = 14

smoothSolver:  Solving for Ux, Initial residual = 0.0040028051, Final residual = 0.00024488817, No Iterations 3
smoothSolver:  Solving for Uy, Initial residual = 0.025400692, Final residual = 0.0017110124, No Iterations 3
GAMG:  Solving for p, Initial residual = 0.027927147, Final residual = 0.0021332941, No Iterations 2
time step continuity errors : sum local = 0.00010613608, global = -9.7662123e-06, cumulative = -0.00030784318
ExecutionTime = 8.85 s  ClockTime = 12 s

Time = 15

smoothSolver:  Solving for Ux, Initial residual = 0.0038967947, Final residual = 0.00024234681, No Iterations 3
smoothSolver:  Solving for Uy, Initial residual = 0.024926308, Final residual = 0.0016804309, No Iterations 3
GAMG:  Solving for p, Initial residual = 0.022718806, Final residual = 0.0022713718, No Iterations 2
time step continuity errors : sum local = 0.00011415697, global = -8.1447037e-06, cumulative = -0.00031598788
ExecutionTime = 9.23 s  ClockTime = 12 s

Time = 16

smoothSolver:  Solving for Ux, Initial residual = 0.0038222243, Final residual = 0.00024126734, No Iterations 3
smoothSolver:  Solving for Uy, Initial residual = 0.024534732, Final residual = 0.0016562273, No Iterations 3
GAMG:  Solving for p, Initial residual = 0.017964359, Final residual = 0.0013209589, No Iterations 2
time step continuity errors : sum local = 6.9250927e-05, global = -6.7997304e-06, cumulative = -0.00032278761
ExecutionTime = 9.62 s  ClockTime = 13 s

Time = 17

smoothSolver:  Solving for Ux, Initial residual = 0.0037445936, Final residual = 0.00023900493, No Iterations 3
smoothSolver:  Solving for Uy, Initial residual = 0.024182088, Final residual = 0.0016335359, No Iterations 3
GAMG:  Solving for p, Initial residual = 0.014850259, Final residual = 0.0010406346, No Iterations 2
time step continuity errors : sum local = 5.4825513e-05, global = -5.3174591e-06, cumulative = -0.00032810507
ExecutionTime = 10.01 s  ClockTime = 13 s

Time = 18

smoothSolver:  Solving for Ux, Initial residual = 0.0036762507, Final residual = 0.00023677586, No Iterations 3
smoothSolver:  Solving for Uy, Initial residual = 0.023846988, Final residual = 0.0016120883, No Iterations 3
GAMG:  Solving for p, Initial residual = 0.012769151, Final residual = 0.0010680938, No Iterations 2
time step continuity errors : sum local = 5.5536713e-05, global = -2.9717704e-06, cumulative = -0.00033107684
ExecutionTime = 10.4 s  ClockTime = 14 s

Time = 19

smoothSolver:  Solving for Ux, Initial residual = 0.0036178279, Final residual = 0.00023486785, No Iterations 3
smoothSolver:  Solving for Uy, Initial residual = 0.023516056, Final residual = 0.0015905883, No Iterations 3
GAMG:  Solving for p, Initial residual = 0.010837929, Final residual = 0.0010555472, No Iterations 2
time step continuity errors : sum local = 5.4150139e-05, global = 3.3454919e-07, cumulative = -0.00033074229
ExecutionTime = 10.78 s  ClockTime = 14 s

Time = 20

smoothSolver:  Solving for Ux, Initial residual = 0.0035646164, Final residual = 0.00023297208, No Iterations 3
smoothSolver:  Solving for Uy, Initial residual = 0.023179493, Final residual = 0.0015683566, No Iterations 3
GAMG:  Solving for p, Initial residual = 0.0093320004, Final residual = 0.0006969523, No Iterations 4
time step continuity errors : sum local = 3.5218908e-05, global = 1.2529712e-06, cumulative = -0.00032948932
ExecutionTime = 11.21 s  ClockTime = 14 s

Time = 21

smoothSolver:  Solving for Ux, Initial residual = 0.0034965643, Final residual = 0.00022908962, No Iterations 3
smoothSolver:  Solving for Uy, Initial residual = 0.02282805, Final residual = 0.0015445795, No Iterations 3
GAMG:  Solving for p, Initial residual = 0.0088895006, Final residual = 0.00067874047, No Iterations 2
time step continuity errors : sum local = 3.0836934e-05, global = 2.1367024e-06, cumulative = -0.00032735262
ExecutionTime = 11.6 s  ClockTime = 15 s

Time = 22

smoothSolver:  Solving for Ux, Initial residual = 0.0034476487, Final residual = 0.00022707041, No Iterations 3
smoothSolver:  Solving for Uy, Initial residual = 0.02255134, Final residual = 0.0015257074, No Iterations 3
GAMG:  Solving for p, Initial residual = 0.0081243486, Final residual = 0.00060772643, No Iterations 4
time step continuity errors : sum local = 2.7295351e-05, global = 1.3524102e-06, cumulative = -0.00032600021
ExecutionTime = 12.04 s  ClockTime = 15 s

Time = 23

smoothSolver:  Solving for Ux, Initial residual = 0.0034070669, Final residual = 0.00022518199, No Iterations 3
smoothSolver:  Solving for Uy, Initial residual = 0.022321749, Final residual = 0.001510232, No Iterations 3
GAMG:  Solving for p, Initial residual = 0.0069958447, Final residual = 0.00062453052, No Iterations 2
time step continuity errors : sum local = 2.655662e-05, global = -1.6769417e-07, cumulative = -0.0003261679
ExecutionTime = 12.43 s  ClockTime = 16 s

Time = 24

smoothSolver:  Solving for Ux, Initial residual = 0.0033698752, Final residual = 0.00022365067, No Iterations 3
smoothSolver:  Solving for Uy, Initial residual = 0.022052055, Final residual = 0.0014916061, No Iterations 3
GAMG:  Solving for p, Initial residual = 0.0067326718, Final residual = 0.00061444258, No Iterations 3
time step continuity errors : sum local = 2.5948325e-05, global = -4.4566432e-07, cumulative = -0.00032661357
ExecutionTime = 12.85 s  ClockTime = 16 s

Time = 25

smoothSolver:  Solving for Ux, Initial residual = 0.0033424417, Final residual = 0.00022264933, No Iterations 3
smoothSolver:  Solving for Uy, Initial residual = 0.021759856, Final residual = 0.0014712904, No Iterations 3
GAMG:  Solving for p, Initial residual = 0.0056905684, Final residual = 0.00056637216, No Iterations 2
time step continuity errors : sum local = 2.3867192e-05, global = -1.1292579e-06, cumulative = -0.00032774283
ExecutionTime = 13.28 s  ClockTime = 16 s

Time = 26

smoothSolver:  Solving for Ux, Initial residual = 0.0033102248, Final residual = 0.00022123084, No Iterations 3
smoothSolver:  Solving for Uy, Initial residual = 0.021523638, Final residual = 0.001454881, No Iterations 3
GAMG:  Solving for p, Initial residual = 0.0053978359, Final residual = 0.00045896692, No Iterations 3
time step continuity errors : sum local = 1.9267416e-05, global = -6.8898927e-07, cumulative = -0.00032843182
ExecutionTime = 13.74 s  ClockTime = 17 s

Time = 27

smoothSolver:  Solving for Ux, Initial residual = 0.0032869168, Final residual = 0.00022035374, No Iterations 3
smoothSolver:  Solving for Uy, Initial residual = 0.021285109, Final residual = 0.0014382101, No Iterations 3
GAMG:  Solving for p, Initial residual = 0.0045318744, Final residual = 0.00023139191, No Iterations 3
time step continuity errors : sum local = 9.7475191e-06, global = -5.0009762e-07, cumulative = -0.00032893191
ExecutionTime = 14.17 s  ClockTime = 17 s

Time = 28

smoothSolver:  Solving for Ux, Initial residual = 0.003261628, Final residual = 0.00021925546, No Iterations 3
smoothSolver:  Solving for Uy, Initial residual = 0.021065957, Final residual = 0.001423033, No Iterations 3
GAMG:  Solving for p, Initial residual = 0.0041263739, Final residual = 0.00024750968, No Iterations 3
time step continuity errors : sum local = 1.0413619e-05, global = -7.0618657e-08, cumulative = -0.00032900253
ExecutionTime = 14.6 s  ClockTime = 18 s

Time = 29

smoothSolver:  Solving for Ux, Initial residual = 0.0032399685, Final residual = 0.00021832936, No Iterations 3
smoothSolver:  Solving for Uy, Initial residual = 0.020848248, Final residual = 0.001407929, No Iterations 3
GAMG:  Solving for p, Initial residual = 0.0038327683, Final residual = 0.00027545595, No Iterations 3
time step continuity errors : sum local = 1.1556911e-05, global = 4.6352834e-07, cumulative = -0.000328539
ExecutionTime = 15.01 s  ClockTime = 18 s

Time = 30

smoothSolver:  Solving for Ux, Initial residual = 0.0032196305, Final residual = 0.00021744506, No Iterations 3
smoothSolver:  Solving for Uy, Initial residual = 0.020634727, Final residual = 0.0013931982, No Iterations 3
GAMG:  Solving for p, Initial residual = 0.0035488859, Final residual = 0.00013451979, No Iterations 5
time step continuity errors : sum local = 5.6173748e-06, global = 3.4524907e-07, cumulative = -0.00032819375
ExecutionTime = 15.48 s  ClockTime = 19 s

Time = 31

smoothSolver:  Solving for Ux, Initial residual = 0.0031964969, Final residual = 0.00021620105, No Iterations 3
smoothSolver:  Solving for Uy, Initial residual = 0.020431458, Final residual = 0.0013792615, No Iterations 3
GAMG:  Solving for p, Initial residual = 0.0033523022, Final residual = 0.00020319271, No Iterations 3
time step continuity errors : sum local = 8.2430602e-06, global = 3.1936674e-07, cumulative = -0.00032787439
ExecutionTime = 15.89 s  ClockTime = 19 s

Time = 32

smoothSolver:  Solving for Ux, Initial residual = 0.0031785006, Final residual = 0.00021542989, No Iterations 3
smoothSolver:  Solving for Uy, Initial residual = 0.020239929, Final residual = 0.0013661634, No Iterations 3
GAMG:  Solving for p, Initial residual = 0.0032009725, Final residual = 0.00026760025, No Iterations 3
time step continuity errors : sum local = 1.0817908e-05, global = 4.2685739e-07, cumulative = -0.00032744753
ExecutionTime = 16.31 s  ClockTime = 19 s

Time = 33

smoothSolver:  Solving for Ux, Initial residual = 0.0031619174, Final residual = 0.00021471283, No Iterations 3
smoothSolver:  Solving for Uy, Initial residual = 0.020051053, Final residual = 0.0013532624, No Iterations 3
GAMG:  Solving for p, Initial residual = 0.0030080027, Final residual = 0.0002887175, No Iterations 3
time step continuity errors : sum local = 1.1617245e-05, global = 5.5217914e-07, cumulative = -0.00032689535
ExecutionTime = 16.73 s  ClockTime = 20 s

Time = 34

smoothSolver:  Solving for Ux, Initial residual = 0.0031452863, Final residual = 0.00021395329, No Iterations 3
smoothSolver:  Solving for Uy, Initial residual = 0.019867689, Final residual = 0.0013408418, No Iterations 3
GAMG:  Solving for p, Initial residual = 0.0028453974, Final residual = 0.00011670228, No Iterations 5
time step continuity errors : sum local = 4.6659793e-06, global = 3.0545264e-07, cumulative = -0.0003265899
ExecutionTime = 17.18 s  ClockTime = 20 s

Time = 35

smoothSolver:  Solving for Ux, Initial residual = 0.0031275573, Final residual = 0.00021298237, No Iterations 3
smoothSolver:  Solving for Uy, Initial residual = 0.019693246, Final residual = 0.0013291017, No Iterations 3
GAMG:  Solving for p, Initial residual = 0.0027078499, Final residual = 0.00017042633, No Iterations 3
time step continuity errors : sum local = 6.6610449e-06, global = 2.5221907e-08, cumulative = -0.00032656468
ExecutionTime = 17.6 s  ClockTime = 21 s

Time = 36

smoothSolver:  Solving for Ux, Initial residual = 0.003113487, Final residual = 0.00021237833, No Iterations 3
smoothSolver:  Solving for Uy, Initial residual = 0.019526039, Final residual = 0.0013178882, No Iterations 3
GAMG:  Solving for p, Initial residual = 0.0026471386, Final residual = 0.00020887988, No Iterations 3
time step continuity errors : sum local = 8.1509915e-06, global = -5.9076785e-08, cumulative = -0.00032662375
ExecutionTime = 18.01 s  ClockTime = 21 s

Time = 37

smoothSolver:  Solving for Ux, Initial residual = 0.0031011855, Final residual = 0.00021186484, No Iterations 3
smoothSolver:  Solving for Uy, Initial residual = 0.01936109, Final residual = 0.001306818, No Iterations 3
GAMG:  Solving for p, Initial residual = 0.0024973889, Final residual = 0.00021552114, No Iterations 3
time step continuity errors : sum local = 8.3986701e-06, global = 1.3506928e-08, cumulative = -0.00032661025
ExecutionTime = 18.42 s  ClockTime = 22 s

Time = 38

smoothSolver:  Solving for Ux, Initial residual = 0.0030888391, Final residual = 0.00021132073, No Iterations 3
smoothSolver:  Solving for Uy, Initial residual = 0.019199431, Final residual = 0.001296023, No Iterations 3
GAMG:  Solving for p, Initial residual = 0.0023809652, Final residual = 0.00021771056, No Iterations 3
time step continuity errors : sum local = 8.4713403e-06, global = 2.0528514e-07, cumulative = -0.00032640496
ExecutionTime = 18.84 s  ClockTime = 22 s

Time = 39

smoothSolver:  Solving for Ux, Initial residual = 0.0030769621, Final residual = 0.00021078279, No Iterations 3
smoothSolver:  Solving for Uy, Initial residual = 0.019043259, Final residual = 0.0012856424, No Iterations 3
GAMG:  Solving for p, Initial residual = 0.0022855089, Final residual = 0.00020896331, No Iterations 4
time step continuity errors : sum local = 8.1121496e-06, global = 2.753135e-07, cumulative = -0.00032612965
ExecutionTime = 19.28 s  ClockTime = 22 s

Time = 40

smoothSolver:  Solving for Ux, Initial residual = 0.0030645729, Final residual = 0.00021013499, No Iterations 3
smoothSolver:  Solving for Uy, Initial residual = 0.018893256, Final residual = 0.0012757567, No Iterations 3
GAMG:  Solving for p, Initial residual = 0.0022277982, Final residual = 0.00016821062, No Iterations 3
time step continuity errors : sum local = 6.4615151e-06, global = 3.5309573e-07, cumulative = -0.00032577655
ExecutionTime = 19.68 s  ClockTime = 23 s

Time = 41

smoothSolver:  Solving for Ux, Initial residual = 0.0030543655, Final residual = 0.00020969345, No Iterations 3
smoothSolver:  Solving for Uy, Initial residual = 0.018747022, Final residual = 0.0012660881, No Iterations 3
GAMG:  Solving for p, Initial residual = 0.0021743304, Final residual = 0.00011009009, No Iterations 5
time step continuity errors : sum local = 4.2158406e-06, global = 2.6098399e-07, cumulative = -0.00032551557
ExecutionTime = 20.14 s  ClockTime = 23 s

Time = 42

smoothSolver:  Solving for Ux, Initial residual = 0.0030442478, Final residual = 0.00020914043, No Iterations 3
smoothSolver:  Solving for Uy, Initial residual = 0.018606535, Final residual = 0.0012569872, No Iterations 3
GAMG:  Solving for p, Initial residual = 0.0020479257, Final residual = 0.00015193976, No Iterations 3
time step continuity errors : sum local = 5.720107e-06, global = 4.7268249e-08, cumulative = -0.0003254683
ExecutionTime = 20.56 s  ClockTime = 24 s

Time = 43

smoothSolver:  Solving for Ux, Initial residual = 0.0030344569, Final residual = 0.0002087103, No Iterations 3
smoothSolver:  Solving for Uy, Initial residual = 0.018468589, Final residual = 0.0012480393, No Iterations 3
GAMG:  Solving for p, Initial residual = 0.0020593691, Final residual = 0.00019815532, No Iterations 3
time step continuity errors : sum local = 7.4519624e-06, global = 6.1301811e-08, cumulative = -0.000325407
ExecutionTime = 20.96 s  ClockTime = 24 s

Time = 44

smoothSolver:  Solving for Ux, Initial residual = 0.0030261882, Final residual = 0.00020836003, No Iterations 3
smoothSolver:  Solving for Uy, Initial residual = 0.018334385, Final residual = 0.0012393599, No Iterations 3
GAMG:  Solving for p, Initial residual = 0.001957256, Final residual = 0.00011996807, No Iterations 4
time step continuity errors : sum local = 4.5065075e-06, global = 2.6818362e-07, cumulative = -0.00032513881
ExecutionTime = 21.4 s  ClockTime = 25 s

Time = 45

smoothSolver:  Solving for Ux, Initial residual = 0.0030178113, Final residual = 0.0002079615, No Iterations 3
smoothSolver:  Solving for Uy, Initial residual = 0.018201919, Final residual = 0.0012308469, No Iterations 3
GAMG:  Solving for p, Initial residual = 0.0018462843, Final residual = 0.00016120189, No Iterations 3
time step continuity errors : sum local = 6.0370907e-06, global = 3.3126008e-07, cumulative = -0.00032480755
ExecutionTime = 21.81 s  ClockTime = 25 s

Time = 46

smoothSolver:  Solving for Ux, Initial residual = 0.0030095105, Final residual = 0.0002075988, No Iterations 3
smoothSolver:  Solving for Uy, Initial residual = 0.018074775, Final residual = 0.001222626, No Iterations 3
GAMG:  Solving for p, Initial residual = 0.001852879, Final residual = 0.00011237697, No Iterations 5
time step continuity errors : sum local = 4.197528e-06, global = 2.4188729e-07, cumulative = -0.00032456567
ExecutionTime = 22.26 s  ClockTime = 25 s

Time = 47

smoothSolver:  Solving for Ux, Initial residual = 0.0030016976, Final residual = 0.00020715035, No Iterations 3
smoothSolver:  Solving for Uy, Initial residual = 0.017951977, Final residual = 0.0012147614, No Iterations 3
GAMG:  Solving for p, Initial residual = 0.0017687825, Final residual = 0.00013482903, No Iterations 3
time step continuity errors : sum local = 4.9519741e-06, global = 5.1049528e-08, cumulative = -0.00032451462
ExecutionTime = 22.68 s  ClockTime = 26 s

Time = 48

smoothSolver:  Solving for Ux, Initial residual = 0.0029940281, Final residual = 0.00020683492, No Iterations 3
smoothSolver:  Solving for Uy, Initial residual = 0.017829354, Final residual = 0.0012068656, No Iterations 3
GAMG:  Solving for p, Initial residual = 0.001790172, Final residual = 0.00017864801, No Iterations 3
time step continuity errors : sum local = 6.5549334e-06, global = 8.4358823e-08, cumulative = -0.00032443026
ExecutionTime = 23.09 s  ClockTime = 26 s

Time = 49

smoothSolver:  Solving for Ux, Initial residual = 0.0029876452, Final residual = 0.00020658802, No Iterations 3
smoothSolver:  Solving for Uy, Initial residual = 0.017710867, Final residual = 0.0011992889, No Iterations 3
GAMG:  Solving for p, Initial residual = 0.001713837, Final residual = 0.00011798109, No Iterations 4
time step continuity errors : sum local = 4.3240942e-06, global = 2.5935177e-07, cumulative = -0.00032417091
ExecutionTime = 23.54 s  ClockTime = 27 s

Time = 50

smoothSolver:  Solving for Ux, Initial residual = 0.002981204, Final residual = 0.00020629417, No Iterations 3
smoothSolver:  Solving for Uy, Initial residual = 0.017593234, Final residual = 0.0011918073, No Iterations 3
GAMG:  Solving for p, Initial residual = 0.0016221185, Final residual = 0.00015367016, No Iterations 3
time step continuity errors : sum local = 5.6089509e-06, global = 3.1764799e-07, cumulative = -0.00032385326
ExecutionTime = 23.95 s  ClockTime = 27 s

Time = 51

smoothSolver:  Solving for Ux, Initial residual = 0.002974621, Final residual = 0.00020602843, No Iterations 3
smoothSolver:  Solving for Uy, Initial residual = 0.017478299, Final residual = 0.0011844402, No Iterations 3
GAMG:  Solving for p, Initial residual = 0.0016440964, Final residual = 9.5440176e-05, No Iterations 5
time step continuity errors : sum local = 3.4736396e-06, global = 2.5246318e-07, cumulative = -0.0003236008
ExecutionTime = 24.42 s  ClockTime = 28 s

Time = 52

smoothSolver:  Solving for Ux, Initial residual = 0.0029689339, Final residual = 0.00020569388, No Iterations 3
smoothSolver:  Solving for Uy, Initial residual = 0.017368037, Final residual = 0.0011775313, No Iterations 3
GAMG:  Solving for p, Initial residual = 0.0015777646, Final residual = 0.00012903414, No Iterations 3
time step continuity errors : sum local = 4.6220905e-06, global = 5.819625e-08, cumulative = -0.0003235426
ExecutionTime = 24.82 s  ClockTime = 28 s

Time = 53

smoothSolver:  Solving for Ux, Initial residual = 0.0029632155, Final residual = 0.00020548158, No Iterations 3
smoothSolver:  Solving for Uy, Initial residual = 0.017256766, Final residual = 0.0011705856, No Iterations 3
GAMG:  Solving for p, Initial residual = 0.0015981825, Final residual = 8.229327e-05, No Iterations 4
time step continuity errors : sum local = 2.9452365e-06, global = 1.749347e-07, cumulative = -0.00032336766
ExecutionTime = 25.26 s  ClockTime = 28 s

Time = 54

smoothSolver:  Solving for Ux, Initial residual = 0.0029589326, Final residual = 0.00020531655, No Iterations 3
smoothSolver:  Solving for Uy, Initial residual = 0.017150458, Final residual = 0.0011640657, No Iterations 3
GAMG:  Solving for p, Initial residual = 0.0014835525, Final residual = 9.8047093e-05, No Iterations 4
time step continuity errors : sum local = 3.5042584e-06, global = 2.4385213e-07, cumulative = -0.00032312381
ExecutionTime = 25.7 s  ClockTime = 29 s

Time = 55

smoothSolver:  Solving for Ux, Initial residual = 0.0029540842, Final residual = 0.00020511042, No Iterations 3
smoothSolver:  Solving for Uy, Initial residual = 0.017043592, Final residual = 0.0011575065, No Iterations 3
GAMG:  Solving for p, Initial residual = 0.0014785291, Final residual = 0.00012164247, No Iterations 4
time step continuity errors : sum local = 4.3314933e-06, global = 2.1081555e-07, cumulative = -0.000322913
ExecutionTime = 26.12 s  ClockTime = 29 s

Time = 56

smoothSolver:  Solving for Ux, Initial residual = 0.0029497357, Final residual = 0.00020491887, No Iterations 3
smoothSolver:  Solving for Uy, Initial residual = 0.016939556, Final residual = 0.0011511522, No Iterations 3
GAMG:  Solving for p, Initial residual = 0.0014723126, Final residual = 0.00011180823, No Iterations 4
time step continuity errors : sum local = 3.9564391e-06, global = 1.972163e-07, cumulative = -0.00032271578
ExecutionTime = 26.56 s  ClockTime = 30 s

Time = 57

smoothSolver:  Solving for Ux, Initial residual = 0.0029461459, Final residual = 0.00020476318, No Iterations 3
smoothSolver:  Solving for Uy, Initial residual = 0.01683661, Final residual = 0.0011448895, No Iterations 3
GAMG:  Solving for p, Initial residual = 0.0014441992, Final residual = 0.00010600219, No Iterations 4
time step continuity errors : sum local = 3.7312951e-06, global = 2.1525478e-07, cumulative = -0.00032250053
ExecutionTime = 26.99 s  ClockTime = 30 s

Time = 58

smoothSolver:  Solving for Ux, Initial residual = 0.0029430801, Final residual = 0.0002046316, No Iterations 3
smoothSolver:  Solving for Uy, Initial residual = 0.01673561, Final residual = 0.0011387768, No Iterations 3
GAMG:  Solving for p, Initial residual = 0.0014226242, Final residual = 0.00010866708, No Iterations 4
time step continuity errors : sum local = 3.8077432e-06, global = 2.2599029e-07, cumulative = -0.00032227454
ExecutionTime = 27.43 s  ClockTime = 31 s

Time = 59

smoothSolver:  Solving for Ux, Initial residual = 0.0029404662, Final residual = 0.00020452588, No Iterations 3
smoothSolver:  Solving for Uy, Initial residual = 0.016636048, Final residual = 0.0011328817, No Iterations 3
GAMG:  Solving for p, Initial residual = 0.0014067494, Final residual = 0.00011016589, No Iterations 4
time step continuity errors : sum local = 3.8423718e-06, global = 2.2788429e-07, cumulative = -0.00032204665
ExecutionTime = 27.85 s  ClockTime = 31 s

Time = 60

smoothSolver:  Solving for Ux, Initial residual = 0.0029381901, Final residual = 0.00020444281, No Iterations 3
smoothSolver:  Solving for Uy, Initial residual = 0.016537913, Final residual = 0.0011271418, No Iterations 3
GAMG:  Solving for p, Initial residual = 0.0013927253, Final residual = 0.00011002265, No Iterations 4
time step continuity errors : sum local = 3.8192871e-06, global = 2.2692232e-07, cumulative = -0.00032181973
ExecutionTime = 28.29 s  ClockTime = 31 s

Time = 61

smoothSolver:  Solving for Ux, Initial residual = 0.002936226, Final residual = 0.00020437575, No Iterations 3
smoothSolver:  Solving for Uy, Initial residual = 0.016441083, Final residual = 0.0011215324, No Iterations 3
GAMG:  Solving for p, Initial residual = 0.0013783726, Final residual = 0.00011013497, No Iterations 4
time step continuity errors : sum local = 3.8053795e-06, global = 2.2579201e-07, cumulative = -0.00032159394
ExecutionTime = 28.73 s  ClockTime = 32 s

Time = 62

smoothSolver:  Solving for Ux, Initial residual = 0.0029345031, Final residual = 0.000204325, No Iterations 3
smoothSolver:  Solving for Uy, Initial residual = 0.016345405, Final residual = 0.0011160186, No Iterations 3
GAMG:  Solving for p, Initial residual = 0.0013647073, Final residual = 0.00011064461, No Iterations 4
time step continuity errors : sum local = 3.8053595e-06, global = 2.2417006e-07, cumulative = -0.00032136977
ExecutionTime = 29.17 s  ClockTime = 32 s

Time = 63

smoothSolver:  Solving for Ux, Initial residual = 0.0029330691, Final residual = 0.00020429302, No Iterations 3
smoothSolver:  Solving for Uy, Initial residual = 0.016250754, Final residual = 0.0011105971, No Iterations 3
GAMG:  Solving for p, Initial residual = 0.0013521723, Final residual = 0.0001110114, No Iterations 4
time step continuity errors : sum local = 3.8004105e-06, global = 2.2201358e-07, cumulative = -0.00032114775
ExecutionTime = 29.6 s  ClockTime = 33 s

Time = 64

smoothSolver:  Solving for Ux, Initial residual = 0.0029319224, Final residual = 0.00020428076, No Iterations 3
smoothSolver:  Solving for Uy, Initial residual = 0.016157265, Final residual = 0.0011052785, No Iterations 3
GAMG:  Solving for p, Initial residual = 0.0013403354, Final residual = 0.00011121446, No Iterations 4
time step continuity errors : sum local = 3.7899051e-06, global = 2.1963672e-07, cumulative = -0.00032092812
ExecutionTime = 30.04 s  ClockTime = 33 s

Time = 65

smoothSolver:  Solving for Ux, Initial residual = 0.0029310862, Final residual = 0.00020428707, No Iterations 3
smoothSolver:  Solving for Uy, Initial residual = 0.016064952, Final residual = 0.001100039, No Iterations 3
GAMG:  Solving for p, Initial residual = 0.0013291311, Final residual = 0.00011143144, No Iterations 4
time step continuity errors : sum local = 3.7799532e-06, global = 2.171243e-07, cumulative = -0.00032071099
ExecutionTime = 30.49 s  ClockTime = 34 s

Time = 66

smoothSolver:  Solving for Ux, Initial residual = 0.0029305722, Final residual = 0.00020431489, No Iterations 3
smoothSolver:  Solving for Uy, Initial residual = 0.015973824, Final residual = 0.0010948886, No Iterations 3
GAMG:  Solving for p, Initial residual = 0.0013184177, Final residual = 0.00011173388, No Iterations 4
time step continuity errors : sum local = 3.7729371e-06, global = 2.1442874e-07, cumulative = -0.00032049656
ExecutionTime = 31.09 s  ClockTime = 35 s

Time = 67

smoothSolver:  Solving for Ux, Initial residual = 0.0029304181, Final residual = 0.00020436991, No Iterations 3
smoothSolver:  Solving for Uy, Initial residual = 0.015883754, Final residual = 0.0010898339, No Iterations 3
GAMG:  Solving for p, Initial residual = 0.0013084591, Final residual = 0.00011205807, No Iterations 4
time step continuity errors : sum local = 3.7666567e-06, global = 2.1155519e-07, cumulative = -0.00032028501
ExecutionTime = 31.55 s  ClockTime = 35 s

Time = 68

smoothSolver:  Solving for Ux, Initial residual = 0.0029306374, Final residual = 0.00020445214, No Iterations 3
smoothSolver:  Solving for Uy, Initial residual = 0.015794728, Final residual = 0.0010848484, No Iterations 3
GAMG:  Solving for p, Initial residual = 0.001299081, Final residual = 0.00011237886, No Iterations 4
time step continuity errors : sum local = 3.7602504e-06, global = 2.0856162e-07, cumulative = -0.00032007645
ExecutionTime = 32.09 s  ClockTime = 36 s

Time = 69

smoothSolver:  Solving for Ux, Initial residual = 0.0029312487, Final residual = 0.00020456133, No Iterations 3
smoothSolver:  Solving for Uy, Initial residual = 0.015706748, Final residual = 0.0010799485, No Iterations 3
GAMG:  Solving for p, Initial residual = 0.0012902411, Final residual = 0.00011270157, No Iterations 4
time step continuity errors : sum local = 3.7539013e-06, global = 2.0551726e-07, cumulative = -0.00031987093
ExecutionTime = 32.56 s  ClockTime = 36 s

Time = 70

smoothSolver:  Solving for Ux, Initial residual = 0.0029321894, Final residual = 0.00020469744, No Iterations 3
smoothSolver:  Solving for Uy, Initial residual = 0.015619945, Final residual = 0.0010751164, No Iterations 3
GAMG:  Solving for p, Initial residual = 0.0012819786, Final residual = 0.00011305202, No Iterations 4
time step continuity errors : sum local = 3.7484685e-06, global = 2.0252649e-07, cumulative = -0.0003196684
ExecutionTime = 33.08 s  ClockTime = 37 s

Time = 71

smoothSolver:  Solving for Ux, Initial residual = 0.0029334646, Final residual = 0.00020486322, No Iterations 3
smoothSolver:  Solving for Uy, Initial residual = 0.015534137, Final residual = 0.0010703699, No Iterations 3
GAMG:  Solving for p, Initial residual = 0.0012743489, Final residual = 0.00011344651, No Iterations 4
time step continuity errors : sum local = 3.7444828e-06, global = 1.9970506e-07, cumulative = -0.0003194687
ExecutionTime = 33.51 s  ClockTime = 37 s

Time = 72

smoothSolver:  Solving for Ux, Initial residual = 0.0029350598, Final residual = 0.00020505544, No Iterations 3
smoothSolver:  Solving for Uy, Initial residual = 0.015449425, Final residual = 0.0010656942, No Iterations 3
GAMG:  Solving for p, Initial residual = 0.0012672403, Final residual = 0.00011391529, No Iterations 4
time step continuity errors : sum local = 3.7429179e-06, global = 1.9714993e-07, cumulative = -0.00031927155
ExecutionTime = 33.98 s  ClockTime = 37 s

Time = 73

smoothSolver:  Solving for Ux, Initial residual = 0.0029370061, Final residual = 0.0002052733, No Iterations 3
smoothSolver:  Solving for Uy, Initial residual = 0.015365899, Final residual = 0.0010610871, No Iterations 3
GAMG:  Solving for p, Initial residual = 0.0012608215, Final residual = 0.00011448485, No Iterations 4
time step continuity errors : sum local = 3.7445918e-06, global = 1.9493502e-07, cumulative = -0.00031907661
ExecutionTime = 34.42 s  ClockTime = 38 s

Time = 74

smoothSolver:  Solving for Ux, Initial residual = 0.0029392539, Final residual = 0.00020551382, No Iterations 3
smoothSolver:  Solving for Uy, Initial residual = 0.015283722, Final residual = 0.0010566739, No Iterations 3
GAMG:  Solving for p, Initial residual = 0.0012549964, Final residual = 0.00011519623, No Iterations 4
time step continuity errors : sum local = 3.7507894e-06, global = 1.9313716e-07, cumulative = -0.00031888348
ExecutionTime = 34.84 s  ClockTime = 38 s

Time = 75

smoothSolver:  Solving for Ux, Initial residual = 0.0029417897, Final residual = 0.00020577725, No Iterations 3
smoothSolver:  Solving for Uy, Initial residual = 0.015202665, Final residual = 0.0010524029, No Iterations 3
GAMG:  Solving for p, Initial residual = 0.0012500277, Final residual = 0.00011607185, No Iterations 4
time step continuity errors : sum local = 3.7621812e-06, global = 1.9176315e-07, cumulative = -0.00031869171
ExecutionTime = 35.28 s  ClockTime = 39 s

Time = 76

smoothSolver:  Solving for Ux, Initial residual = 0.0029446023, Final residual = 0.00020606205, No Iterations 3
smoothSolver:  Solving for Uy, Initial residual = 0.015123085, Final residual = 0.0010482476, No Iterations 3
GAMG:  Solving for p, Initial residual = 0.0012457447, Final residual = 0.00011703009, No Iterations 4
time step continuity errors : sum local = 3.7760522e-06, global = 1.9079212e-07, cumulative = -0.00031850092
ExecutionTime = 35.73 s  ClockTime = 39 s

Time = 77

smoothSolver:  Solving for Ux, Initial residual = 0.0029476667, Final residual = 0.00020636647, No Iterations 3
smoothSolver:  Solving for Uy, Initial residual = 0.015044572, Final residual = 0.001044205, No Iterations 3
GAMG:  Solving for p, Initial residual = 0.0012418789, Final residual = 0.00011800434, No Iterations 4
time step continuity errors : sum local = 3.790221e-06, global = 1.9018484e-07, cumulative = -0.00031831074
ExecutionTime = 36.19 s  ClockTime = 40 s

Time = 78

smoothSolver:  Solving for Ux, Initial residual = 0.0029509568, Final residual = 0.00020669263, No Iterations 3
smoothSolver:  Solving for Uy, Initial residual = 0.014967722, Final residual = 0.0010402733, No Iterations 3
GAMG:  Solving for p, Initial residual = 0.0012384037, Final residual = 0.00011895795, No Iterations 4
time step continuity errors : sum local = 3.8035163e-06, global = 1.8988419e-07, cumulative = -0.00031812085
ExecutionTime = 36.62 s  ClockTime = 40 s

Time = 79

smoothSolver:  Solving for Ux, Initial residual = 0.0029544126, Final residual = 0.00020703425, No Iterations 3
smoothSolver:  Solving for Uy, Initial residual = 0.014892571, Final residual = 0.00103644, No Iterations 3
GAMG:  Solving for p, Initial residual = 0.0012353001, Final residual = 0.00011987804, No Iterations 4
time step continuity errors : sum local = 3.8155477e-06, global = 1.8979841e-07, cumulative = -0.00031793105
ExecutionTime = 37.06 s  ClockTime = 41 s

Time = 80

smoothSolver:  Solving for Ux, Initial residual = 0.0029580373, Final residual = 0.0002073909, No Iterations 3
smoothSolver:  Solving for Uy, Initial residual = 0.014819203, Final residual = 0.0010327073, No Iterations 3
GAMG:  Solving for p, Initial residual = 0.0012325438, Final residual = 0.000120748, No Iterations 4
time step continuity errors : sum local = 3.8258016e-06, global = 1.8985395e-07, cumulative = -0.0003177412
ExecutionTime = 37.49 s  ClockTime = 41 s

Time = 81

smoothSolver:  Solving for Ux, Initial residual = 0.0029618139, Final residual = 0.00020776108, No Iterations 3
smoothSolver:  Solving for Uy, Initial residual = 0.014747682, Final residual = 0.00102908, No Iterations 3
GAMG:  Solving for p, Initial residual = 0.0012301546, Final residual = 0.00012154939, No Iterations 4
time step continuity errors : sum local = 3.8337102e-06, global = 1.8999076e-07, cumulative = -0.00031755121
ExecutionTime = 37.93 s  ClockTime = 41 s

Time = 82

smoothSolver:  Solving for Ux, Initial residual = 0.0029657219, Final residual = 0.00020814214, No Iterations 3
smoothSolver:  Solving for Uy, Initial residual = 0.014678148, Final residual = 0.0010255657, No Iterations 3
GAMG:  Solving for p, Initial residual = 0.0012280573, Final residual = 0.00012229451, No Iterations 4
time step continuity errors : sum local = 3.8396872e-06, global = 1.901557e-07, cumulative = -0.00031736105
ExecutionTime = 38.35 s  ClockTime = 42 s

Time = 83

smoothSolver:  Solving for Ux, Initial residual = 0.0029697003, Final residual = 0.00020853332, No Iterations 3
smoothSolver:  Solving for Uy, Initial residual = 0.014610788, Final residual = 0.0010221613, No Iterations 3
GAMG:  Solving for p, Initial residual = 0.0012262581, Final residual = 0.00011613024, No Iterations 5
time step continuity errors : sum local = 3.6295695e-06, global = 2.7399368e-09, cumulative = -0.00031735831
ExecutionTime = 38.82 s  ClockTime = 42 s

Time = 84

smoothSolver:  Solving for Ux, Initial residual = 0.002974115, Final residual = 0.00020892471, No Iterations 3
smoothSolver:  Solving for Uy, Initial residual = 0.01454312, Final residual = 0.0010186965, No Iterations 3
GAMG:  Solving for p, Initial residual = 0.0012430742, Final residual = 7.7082232e-05, No Iterations 4
time step continuity errors : sum local = 2.3847008e-06, global = 7.4903935e-08, cumulative = -0.00031728341
ExecutionTime = 39.24 s  ClockTime = 43 s

Time = 85

smoothSolver:  Solving for Ux, Initial residual = 0.0029770605, Final residual = 0.00020927832, No Iterations 3
smoothSolver:  Solving for Uy, Initial residual = 0.014485676, Final residual = 0.0010159113, No Iterations 3
GAMG:  Solving for p, Initial residual = 0.0012343106, Final residual = 9.5074025e-05, No Iterations 4
time step continuity errors : sum local = 2.9416037e-06, global = 1.7864732e-07, cumulative = -0.00031710476
ExecutionTime = 39.68 s  ClockTime = 43 s

Time = 86

smoothSolver:  Solving for Ux, Initial residual = 0.0029819439, Final residual = 0.00020974688, No Iterations 3
smoothSolver:  Solving for Uy, Initial residual = 0.014422163, Final residual = 0.0010126182, No Iterations 3
GAMG:  Solving for p, Initial residual = 0.0012042244, Final residual = 0.00011787717, No Iterations 4
time step continuity errors : sum local = 3.6427063e-06, global = 2.3227253e-07, cumulative = -0.00031687249
ExecutionTime = 40.12 s  ClockTime = 44 s

Time = 87

smoothSolver:  Solving for Ux, Initial residual = 0.0029862147, Final residual = 0.00021016377, No Iterations 3
smoothSolver:  Solving for Uy, Initial residual = 0.014363027, Final residual = 0.001009585, No Iterations 3
GAMG:  Solving for p, Initial residual = 0.0012162958, Final residual = 5.3769266e-05, No Iterations 6
time step continuity errors : sum local = 1.6554894e-06, global = 2.5560493e-08, cumulative = -0.00031684693
ExecutionTime = 40.6 s  ClockTime = 44 s

Time = 88

smoothSolver:  Solving for Ux, Initial residual = 0.0029903802, Final residual = 0.00021053321, No Iterations 3
smoothSolver:  Solving for Uy, Initial residual = 0.014307481, Final residual = 0.0010067499, No Iterations 3
GAMG:  Solving for p, Initial residual = 0.001200206, Final residual = 7.9538781e-05, No Iterations 4
time step continuity errors : sum local = 2.416809e-06, global = 7.2425076e-08, cumulative = -0.0003167745
ExecutionTime = 41.04 s  ClockTime = 45 s

Time = 89

smoothSolver:  Solving for Ux, Initial residual = 0.0029929014, Final residual = 0.00021087188, No Iterations 3
smoothSolver:  Solving for Uy, Initial residual = 0.014256752, Final residual = 0.0010042316, No Iterations 3
GAMG:  Solving for p, Initial residual = 0.0012156248, Final residual = 9.5707258e-05, No Iterations 4
time step continuity errors : sum local = 2.9088302e-06, global = 1.7511128e-07, cumulative = -0.00031659939
ExecutionTime = 41.46 s  ClockTime = 45 s

Time = 90

smoothSolver:  Solving for Ux, Initial residual = 0.0029976181, Final residual = 0.00021134266, No Iterations 3
smoothSolver:  Solving for Uy, Initial residual = 0.014204816, Final residual = 0.0010014849, No Iterations 3
GAMG:  Solving for p, Initial residual = 0.0011956169, Final residual = 0.00010789201, No Iterations 5
time step continuity errors : sum local = 3.2754087e-06, global = -7.2805123e-08, cumulative = -0.0003166722
ExecutionTime = 41.93 s  ClockTime = 45 s

Time = 91

smoothSolver:  Solving for Ux, Initial residual = 0.0030020325, Final residual = 0.00021175239, No Iterations 3
smoothSolver:  Solving for Uy, Initial residual = 0.014154608, Final residual = 0.00099879953, No Iterations 3
GAMG:  Solving for p, Initial residual = 0.0012346354, Final residual = 8.587549e-05, No Iterations 4
time step continuity errors : sum local = 2.5822859e-06, global = 1.0977926e-07, cumulative = -0.00031656242
ExecutionTime = 42.37 s  ClockTime = 46 s

Time = 92

smoothSolver:  Solving for Ux, Initial residual = 0.0030038258, Final residual = 0.00021204703, No Iterations 3
smoothSolver:  Solving for Uy, Initial residual = 0.014114371, Final residual = 0.00099679456, No Iterations 3
GAMG:  Solving for p, Initial residual = 0.0012189789, Final residual = 0.00011531649, No Iterations 4
time step continuity errors : sum local = 3.4662358e-06, global = 2.1623252e-07, cumulative = -0.00031634619
ExecutionTime = 42.81 s  ClockTime = 46 s

Time = 93

smoothSolver:  Solving for Ux, Initial residual = 0.0030081907, Final residual = 0.00021248744, No Iterations 3
smoothSolver:  Solving for Uy, Initial residual = 0.014069875, Final residual = 0.00099433845, No Iterations 3
GAMG:  Solving for p, Initial residual = 0.0012005702, Final residual = 5.1722822e-05, No Iterations 6
time step continuity errors : sum local = 1.5498336e-06, global = 5.1043576e-08, cumulative = -0.00031629514
ExecutionTime = 43.29 s  ClockTime = 47 s

Time = 94

smoothSolver:  Solving for Ux, Initial residual = 0.003011838, Final residual = 0.00021282704, No Iterations 3
smoothSolver:  Solving for Uy, Initial residual = 0.014029345, Final residual = 0.00099209536, No Iterations 3
GAMG:  Solving for p, Initial residual = 0.0011920272, Final residual = 8.5227405e-05, No Iterations 4
time step continuity errors : sum local = 2.519633e-06, global = 7.7046799e-08, cumulative = -0.0003162181
ExecutionTime = 43.74 s  ClockTime = 47 s

Time = 95

smoothSolver:  Solving for Ux, Initial residual = 0.0030131043, Final residual = 0.00021308639, No Iterations 3
smoothSolver:  Solving for Uy, Initial residual = 0.013994018, Final residual = 0.00099020021, No Iterations 3
GAMG:  Solving for p, Initial residual = 0.0012106355, Final residual = 0.00010463829, No Iterations 4
time step continuity errors : sum local = 3.094692e-06, global = 1.6470842e-07, cumulative = -0.00031605339
ExecutionTime = 44.2 s  ClockTime = 48 s

Time = 96

smoothSolver:  Solving for Ux, Initial residual = 0.0030167908, Final residual = 0.00021349789, No Iterations 3
smoothSolver:  Solving for Uy, Initial residual = 0.013958578, Final residual = 0.00098812194, No Iterations 3
GAMG:  Solving for p, Initial residual = 0.001195631, Final residual = 0.00010111658, No Iterations 5
time step continuity errors : sum local = 2.9882584e-06, global = -2.0584295e-08, cumulative = -0.00031607397
ExecutionTime = 44.65 s  ClockTime = 48 s

Time = 97

smoothSolver:  Solving for Ux, Initial residual = 0.003020246, Final residual = 0.00021384879, No Iterations 3
smoothSolver:  Solving for Uy, Initial residual = 0.013924482, Final residual = 0.00098606095, No Iterations 3
GAMG:  Solving for p, Initial residual = 0.0012314308, Final residual = 9.2430394e-05, No Iterations 4
time step continuity errors : sum local = 2.707971e-06, global = 1.2797527e-07, cumulative = -0.000315946
ExecutionTime = 45.07 s  ClockTime = 49 s

Time = 98

smoothSolver:  Solving for Ux, Initial residual = 0.0030203627, Final residual = 0.00021404401, No Iterations 3
smoothSolver:  Solving for Uy, Initial residual = 0.01389895, Final residual = 0.00098458984, No Iterations 3
GAMG:  Solving for p, Initial residual = 0.0012258053, Final residual = 0.00010592648, No Iterations 5
time step continuity errors : sum local = 3.1019563e-06, global = -2.2148885e-08, cumulative = -0.00031596814
ExecutionTime = 45.52 s  ClockTime = 49 s

Time = 99

smoothSolver:  Solving for Ux, Initial residual = 0.0030243014, Final residual = 0.00021443363, No Iterations 3
smoothSolver:  Solving for Uy, Initial residual = 0.013868329, Final residual = 0.00098274469, No Iterations 3
GAMG:  Solving for p, Initial residual = 0.0012295789, Final residual = 9.5793794e-05, No Iterations 4
time step continuity errors : sum local = 2.7800762e-06, global = 1.3446658e-07, cumulative = -0.00031583368
ExecutionTime = 45.96 s  ClockTime = 49 s

Time = 100

smoothSolver:  Solving for Ux, Initial residual = 0.0030237162, Final residual = 0.00021458966, No Iterations 3
smoothSolver:  Solving for Uy, Initial residual = 0.013846038, Final residual = 0.00098173358, No Iterations 3
GAMG:  Solving for p, Initial residual = 0.0012318613, Final residual = 9.9742062e-05, No Iterations 5
time step continuity errors : sum local = 2.8935481e-06, global = 4.482298e-09, cumulative = -0.0003158292
ExecutionTime = 47.06 s  ClockTime = 51 s

    functionObjects::vorticity vorticity1 writing field: vorticityField
Time = 101

smoothSolver:  Solving for Ux, Initial residual = 0.0030270247, Final residual = 0.00021494414, No Iterations 3
smoothSolver:  Solving for Uy, Initial residual = 0.013820377, Final residual = 0.00098043873, No Iterations 3
GAMG:  Solving for p, Initial residual = 0.0012321653, Final residual = 9.9647817e-05, No Iterations 4
time step continuity errors : sum local = 2.8693702e-06, global = 1.5525815e-07, cumulative = -0.00031567394
ExecutionTime = 47.81 s  ClockTime = 51 s

Time = 102

smoothSolver:  Solving for Ux, Initial residual = 0.0030257918, Final residual = 0.00021505565, No Iterations 3
smoothSolver:  Solving for Uy, Initial residual = 0.013801535, Final residual = 0.00097974602, No Iterations 3
GAMG:  Solving for p, Initial residual = 0.0012472243, Final residual = 0.00010862587, No Iterations 5
time step continuity errors : sum local = 3.126037e-06, global = -5.4108034e-09, cumulative = -0.00031567935
ExecutionTime = 48.28 s  ClockTime = 52 s

Time = 103

smoothSolver:  Solving for Ux, Initial residual = 0.0030284984, Final residual = 0.00021536445, No Iterations 3
smoothSolver:  Solving for Uy, Initial residual = 0.013779803, Final residual = 0.00097876002, No Iterations 3
GAMG:  Solving for p, Initial residual = 0.0012617134, Final residual = 9.9350109e-05, No Iterations 4
time step continuity errors : sum local = 2.8345975e-06, global = 1.3941062e-07, cumulative = -0.00031553994
ExecutionTime = 48.71 s  ClockTime = 52 s

Time = 104

smoothSolver:  Solving for Ux, Initial residual = 0.003026597, Final residual = 0.00021543125, No Iterations 3
smoothSolver:  Solving for Uy, Initial residual = 0.013763028, Final residual = 0.00097822367, No Iterations 3
GAMG:  Solving for p, Initial residual = 0.0012775473, Final residual = 0.00010700964, No Iterations 5
time step continuity errors : sum local = 3.0520063e-06, global = 2.3498514e-08, cumulative = -0.00031551644
ExecutionTime = 49.18 s  ClockTime = 53 s

Time = 105

smoothSolver:  Solving for Ux, Initial residual = 0.0030286649, Final residual = 0.00021569815, No Iterations 3
smoothSolver:  Solving for Uy, Initial residual = 0.013743667, Final residual = 0.00097740552, No Iterations 3
GAMG:  Solving for p, Initial residual = 0.0012768817, Final residual = 0.00010254251, No Iterations 4
time step continuity errors : sum local = 2.9038018e-06, global = 1.6821568e-07, cumulative = -0.00031534822
ExecutionTime = 49.62 s  ClockTime = 53 s

Time = 106

smoothSolver:  Solving for Ux, Initial residual = 0.0030262722, Final residual = 0.00021572998, No Iterations 3
smoothSolver:  Solving for Uy, Initial residual = 0.013727435, Final residual = 0.00097686668, No Iterations 3
GAMG:  Solving for p, Initial residual = 0.0012971461, Final residual = 0.00011447972, No Iterations 5
time step continuity errors : sum local = 3.239541e-06, global = 1.3226322e-08, cumulative = -0.000315335
ExecutionTime = 50.07 s  ClockTime = 54 s

Time = 107

smoothSolver:  Solving for Ux, Initial residual = 0.0030275319, Final residual = 0.00021593752, No Iterations 3
smoothSolver:  Solving for Uy, Initial residual = 0.013709564, Final residual = 0.00097607966, No Iterations 3
GAMG:  Solving for p, Initial residual = 0.0013114523, Final residual = 0.00010088253, No Iterations 4
time step continuity errors : sum local = 2.831566e-06, global = 1.4758651e-07, cumulative = -0.00031518741
ExecutionTime = 50.51 s  ClockTime = 54 s

Time = 108

smoothSolver:  Solving for Ux, Initial residual = 0.0030247333, Final residual = 0.00021594223, No Iterations 3
smoothSolver:  Solving for Uy, Initial residual = 0.013693181, Final residual = 0.00097541688, No Iterations 3
GAMG:  Solving for p, Initial residual = 0.0013273496, Final residual = 0.00011084152, No Iterations 5
time step continuity errors : sum local = 3.1097178e-06, global = 3.9021986e-08, cumulative = -0.00031514839
ExecutionTime = 51 s  ClockTime = 55 s

Time = 109

smoothSolver:  Solving for Ux, Initial residual = 0.0030252965, Final residual = 0.00021611099, No Iterations 3
smoothSolver:  Solving for Uy, Initial residual = 0.013675552, Final residual = 0.00097452079, No Iterations 3
GAMG:  Solving for p, Initial residual = 0.0013279335, Final residual = 0.00010292124, No Iterations 4
time step continuity errors : sum local = 2.8681418e-06, global = 1.6579397e-07, cumulative = -0.00031498259
ExecutionTime = 51.48 s  ClockTime = 55 s

Time = 110

smoothSolver:  Solving for Ux, Initial residual = 0.0030222972, Final residual = 0.00021610438, No Iterations 3
smoothSolver:  Solving for Uy, Initial residual = 0.013657918, Final residual = 0.00097360042, No Iterations 3
GAMG:  Solving for p, Initial residual = 0.0013436391, Final residual = 0.00011417752, No Iterations 5
time step continuity errors : sum local = 3.1794841e-06, global = 3.2157982e-08, cumulative = -0.00031495044
ExecutionTime = 51.95 s  ClockTime = 56 s

Time = 111

smoothSolver:  Solving for Ux, Initial residual = 0.0030220905, Final residual = 0.00021621673, No Iterations 3
smoothSolver:  Solving for Uy, Initial residual = 0.013639885, Final residual = 0.00097252289, No Iterations 3
GAMG:  Solving for p, Initial residual = 0.0013603619, Final residual = 0.00010001551, No Iterations 4
time step continuity errors : sum local = 2.7640968e-06, global = 1.4298122e-07, cumulative = -0.00031480746
ExecutionTime = 52.37 s  ClockTime = 56 s

Time = 112

smoothSolver:  Solving for Ux, Initial residual = 0.0030190348, Final residual = 0.00021620563, No Iterations 3
smoothSolver:  Solving for Uy, Initial residual = 0.013620206, Final residual = 0.00097140104, No Iterations 3
GAMG:  Solving for p, Initial residual = 0.001368845, Final residual = 0.00010713011, No Iterations 5
time step continuity errors : sum local = 2.9593473e-06, global = 4.8822198e-08, cumulative = -0.00031475863
ExecutionTime = 52.84 s  ClockTime = 56 s

Time = 113

smoothSolver:  Solving for Ux, Initial residual = 0.0030182784, Final residual = 0.00021628469, No Iterations 3
smoothSolver:  Solving for Uy, Initial residual = 0.013600668, Final residual = 0.00097031721, No Iterations 3
GAMG:  Solving for p, Initial residual = 0.0013745116, Final residual = 0.00010130831, No Iterations 4
time step continuity errors : sum local = 2.7809851e-06, global = 1.5367407e-07, cumulative = -0.00031460496
ExecutionTime = 53.27 s  ClockTime = 57 s

Time = 114

smoothSolver:  Solving for Ux, Initial residual = 0.0030153546, Final residual = 0.00021627682, No Iterations 3
smoothSolver:  Solving for Uy, Initial residual = 0.01357841, Final residual = 0.00096905861, No Iterations 3
GAMG:  Solving for p, Initial residual = 0.0013812504, Final residual = 0.00010654942, No Iterations 5
time step continuity errors : sum local = 2.9229355e-06, global = 5.3993127e-08, cumulative = -0.00031455097
ExecutionTime = 53.72 s  ClockTime = 57 s

Time = 115

smoothSolver:  Solving for Ux, Initial residual = 0.0030142184, Final residual = 0.00021631934, No Iterations 3
smoothSolver:  Solving for Uy, Initial residual = 0.013557372, Final residual = 0.00096781751, No Iterations 3
GAMG:  Solving for p, Initial residual = 0.0013989712, Final residual = 9.9170519e-05, No Iterations 4
time step continuity errors : sum local = 2.7019008e-06, global = 1.3857965e-07, cumulative = -0.00031441239
ExecutionTime = 54.16 s  ClockTime = 58 s

Time = 116

smoothSolver:  Solving for Ux, Initial residual = 0.0030115257, Final residual = 0.00021631518, No Iterations 3
smoothSolver:  Solving for Uy, Initial residual = 0.013531776, Final residual = 0.00096621183, No Iterations 3
GAMG:  Solving for p, Initial residual = 0.0013987697, Final residual = 9.9541999e-05, No Iterations 5
time step continuity errors : sum local = 2.7108702e-06, global = 7.0467106e-08, cumulative = -0.00031434192
ExecutionTime = 54.59 s  ClockTime = 58 s

Time = 117

smoothSolver:  Solving for Ux, Initial residual = 0.0030101893, Final residual = 0.00021633745, No Iterations 3
smoothSolver:  Solving for Uy, Initial residual = 0.01350755, Final residual = 0.0009646329, No Iterations 3
GAMG:  Solving for p, Initial residual = 0.0014091878, Final residual = 0.00010023248, No Iterations 4
time step continuity errors : sum local = 2.7133287e-06, global = 1.4216295e-07, cumulative = -0.00031419976
ExecutionTime = 55.03 s  ClockTime = 59 s

Time = 118

smoothSolver:  Solving for Ux, Initial residual = 0.0030077647, Final residual = 0.00021633835, No Iterations 3
smoothSolver:  Solving for Uy, Initial residual = 0.013477708, Final residual = 0.00096260311, No Iterations 3
GAMG:  Solving for p, Initial residual = 0.0014085911, Final residual = 9.7022122e-05, No Iterations 5
time step continuity errors : sum local = 2.6249311e-06, global = 8.509862e-08, cumulative = -0.00031411466
ExecutionTime = 55.48 s  ClockTime = 59 s

Time = 119

smoothSolver:  Solving for Ux, Initial residual = 0.0030063806, Final residual = 0.00021634533, No Iterations 3
smoothSolver:  Solving for Uy, Initial residual = 0.013449811, Final residual = 0.00096072658, No Iterations 3
GAMG:  Solving for p, Initial residual = 0.0014247899, Final residual = 9.9817062e-05, No Iterations 4
time step continuity errors : sum local = 2.6839372e-06, global = 1.3385939e-07, cumulative = -0.0003139808
ExecutionTime = 55.92 s  ClockTime = 60 s

Time = 120

smoothSolver:  Solving for Ux, Initial residual = 0.0030041997, Final residual = 0.00021635197, No Iterations 3
smoothSolver:  Solving for Uy, Initial residual = 0.013415276, Final residual = 0.0009583819, No Iterations 3
GAMG:  Solving for p, Initial residual = 0.0014228426, Final residual = 0.00013897158, No Iterations 4
time step continuity errors : sum local = 3.7347337e-06, global = 1.6254439e-07, cumulative = -0.00031381825
ExecutionTime = 56.36 s  ClockTime = 60 s

Time = 121

smoothSolver:  Solving for Ux, Initial residual = 0.0030025161, Final residual = 0.0002163549, No Iterations 3
smoothSolver:  Solving for Uy, Initial residual = 0.013381678, Final residual = 0.00095611287, No Iterations 3
GAMG:  Solving for p, Initial residual = 0.0014352618, Final residual = 0.00010089776, No Iterations 5
time step continuity errors : sum local = 2.7048322e-06, global = 1.5826173e-07, cumulative = -0.00031365999
ExecutionTime = 56.83 s  ClockTime = 60 s

Time = 122

smoothSolver:  Solving for Ux, Initial residual = 0.0030015388, Final residual = 0.00021636275, No Iterations 3
smoothSolver:  Solving for Uy, Initial residual = 0.013347242, Final residual = 0.00095374498, No Iterations 3
GAMG:  Solving for p, Initial residual = 0.0014546206, Final residual = 9.6250884e-05, No Iterations 4
time step continuity errors : sum local = 2.5595688e-06, global = 1.0675385e-07, cumulative = -0.00031355324
ExecutionTime = 57.27 s  ClockTime = 61 s

Time = 123

smoothSolver:  Solving for Ux, Initial residual = 0.002999608, Final residual = 0.00021637181, No Iterations 3
smoothSolver:  Solving for Uy, Initial residual = 0.013305945, Final residual = 0.00095083289, No Iterations 3
GAMG:  Solving for p, Initial residual = 0.0014475374, Final residual = 0.00012584536, No Iterations 4
time step continuity errors : sum local = 3.3460558e-06, global = 1.4816321e-07, cumulative = -0.00031340508
ExecutionTime = 57.69 s  ClockTime = 61 s

Time = 124

smoothSolver:  Solving for Ux, Initial residual = 0.0029981988, Final residual = 0.00021637901, No Iterations 3
smoothSolver:  Solving for Uy, Initial residual = 0.013265953, Final residual = 0.0009479962, No Iterations 3
GAMG:  Solving for p, Initial residual = 0.0014453675, Final residual = 0.00013927358, No Iterations 4
time step continuity errors : sum local = 3.6975282e-06, global = 1.4423745e-07, cumulative = -0.00031326084
ExecutionTime = 58.14 s  ClockTime = 62 s

Time = 125

smoothSolver:  Solving for Ux, Initial residual = 0.0029972058, Final residual = 0.00021639333, No Iterations 3
smoothSolver:  Solving for Uy, Initial residual = 0.013223824, Final residual = 0.00094494959, No Iterations 3
GAMG:  Solving for p, Initial residual = 0.0014609031, Final residual = 0.00014086114, No Iterations 4
time step continuity errors : sum local = 3.7278258e-06, global = 1.3014724e-07, cumulative = -0.00031313069
ExecutionTime = 58.56 s  ClockTime = 62 s

Time = 126

smoothSolver:  Solving for Ux, Initial residual = 0.0029963181, Final residual = 0.00021641169, No Iterations 3
smoothSolver:  Solving for Uy, Initial residual = 0.013178764, Final residual = 0.00094163561, No Iterations 3
GAMG:  Solving for p, Initial residual = 0.0014628149, Final residual = 0.00013860247, No Iterations 4
time step continuity errors : sum local = 3.6545118e-06, global = 1.2414624e-07, cumulative = -0.00031300654
ExecutionTime = 58.98 s  ClockTime = 63 s

Time = 127

smoothSolver:  Solving for Ux, Initial residual = 0.0029955206, Final residual = 0.00021643124, No Iterations 3
smoothSolver:  Solving for Uy, Initial residual = 0.013131865, Final residual = 0.00093811877, No Iterations 3
GAMG:  Solving for p, Initial residual = 0.0014616888, Final residual = 0.00013509425, No Iterations 4
time step continuity errors : sum local = 3.5489797e-06, global = 1.2399773e-07, cumulative = -0.00031288255
ExecutionTime = 59.46 s  ClockTime = 63 s

Time = 128

smoothSolver:  Solving for Ux, Initial residual = 0.0029949144, Final residual = 0.00021645821, No Iterations 3
smoothSolver:  Solving for Uy, Initial residual = 0.013083095, Final residual = 0.00093438879, No Iterations 3
GAMG:  Solving for p, Initial residual = 0.0014602458, Final residual = 0.0001319392, No Iterations 4
time step continuity errors : sum local = 3.4540502e-06, global = 1.3470223e-07, cumulative = -0.00031274784
ExecutionTime = 59.93 s  ClockTime = 64 s

Time = 129

smoothSolver:  Solving for Ux, Initial residual = 0.0029945061, Final residual = 0.00021649171, No Iterations 3
smoothSolver:  Solving for Uy, Initial residual = 0.013032516, Final residual = 0.00093045143, No Iterations 3
GAMG:  Solving for p, Initial residual = 0.0014581835, Final residual = 0.00012956675, No Iterations 4
time step continuity errors : sum local = 3.3812152e-06, global = 1.3638649e-07, cumulative = -0.00031261146
ExecutionTime = 60.4 s  ClockTime = 64 s

Time = 130

smoothSolver:  Solving for Ux, Initial residual = 0.0029943004, Final residual = 0.00021653233, No Iterations 3
smoothSolver:  Solving for Uy, Initial residual = 0.012980382, Final residual = 0.00092630426, No Iterations 3
GAMG:  Solving for p, Initial residual = 0.0014552927, Final residual = 0.00012745723, No Iterations 4
time step continuity errors : sum local = 3.3159088e-06, global = 1.3542437e-07, cumulative = -0.00031247603
ExecutionTime = 60.85 s  ClockTime = 64 s

Time = 131

smoothSolver:  Solving for Ux, Initial residual = 0.0029942902, Final residual = 0.00021659507, No Iterations 3
smoothSolver:  Solving for Uy, Initial residual = 0.012926782, Final residual = 0.00092195748, No Iterations 3
GAMG:  Solving for p, Initial residual = 0.0014507519, Final residual = 0.00012575638, No Iterations 4
time step continuity errors : sum local = 3.2617575e-06, global = 1.3317225e-07, cumulative = -0.00031234286
ExecutionTime = 61.34 s  ClockTime = 65 s

Time = 132

smoothSolver:  Solving for Ux, Initial residual = 0.0029945372, Final residual = 0.00021667668, No Iterations 3
smoothSolver:  Solving for Uy, Initial residual = 0.012872086, Final residual = 0.00091750906, No Iterations 3
GAMG:  Solving for p, Initial residual = 0.001445045, Final residual = 0.00012437572, No Iterations 4
time step continuity errors : sum local = 3.2161565e-06, global = 1.3003319e-07, cumulative = -0.00031221283
ExecutionTime = 61.76 s  ClockTime = 65 s

Time = 133

smoothSolver:  Solving for Ux, Initial residual = 0.0029950163, Final residual = 0.00021677088, No Iterations 3
smoothSolver:  Solving for Uy, Initial residual = 0.012816578, Final residual = 0.00091305923, No Iterations 3
GAMG:  Solving for p, Initial residual = 0.0014399027, Final residual = 0.00012312693, No Iterations 4
time step continuity errors : sum local = 3.1739955e-06, global = 1.2604602e-07, cumulative = -0.00031208678
ExecutionTime = 62.25 s  ClockTime = 66 s

Time = 134

smoothSolver:  Solving for Ux, Initial residual = 0.0029956364, Final residual = 0.00021687472, No Iterations 3
smoothSolver:  Solving for Uy, Initial residual = 0.012760654, Final residual = 0.00090863939, No Iterations 3
GAMG:  Solving for p, Initial residual = 0.0014361916, Final residual = 0.00012135557, No Iterations 4
time step continuity errors : sum local = 3.1183318e-06, global = 1.1160144e-07, cumulative = -0.00031197518
ExecutionTime = 62.69 s  ClockTime = 66 s

Time = 135

smoothSolver:  Solving for Ux, Initial residual = 0.0029963392, Final residual = 0.00021698288, No Iterations 3
smoothSolver:  Solving for Uy, Initial residual = 0.012704515, Final residual = 0.00090425076, No Iterations 3
GAMG:  Solving for p, Initial residual = 0.0014324658, Final residual = 0.00011903663, No Iterations 4
time step continuity errors : sum local = 3.0483298e-06, global = 1.0509465e-07, cumulative = -0.00031187009
ExecutionTime = 63.12 s  ClockTime = 67 s

Time = 136

smoothSolver:  Solving for Ux, Initial residual = 0.0029971052, Final residual = 0.00021709053, No Iterations 3
smoothSolver:  Solving for Uy, Initial residual = 0.012648515, Final residual = 0.0008999047, No Iterations 3
GAMG:  Solving for p, Initial residual = 0.0014276153, Final residual = 0.00011695927, No Iterations 4
time step continuity errors : sum local = 2.9849828e-06, global = 9.9109244e-08, cumulative = -0.00031177098
ExecutionTime = 63.61 s  ClockTime = 67 s

Time = 137

smoothSolver:  Solving for Ux, Initial residual = 0.0029978859, Final residual = 0.00021719576, No Iterations 3
smoothSolver:  Solving for Uy, Initial residual = 0.012592983, Final residual = 0.00089561487, No Iterations 3
GAMG:  Solving for p, Initial residual = 0.0014224024, Final residual = 0.0001150301, No Iterations 4
time step continuity errors : sum local = 2.9256974e-06, global = 9.2384686e-08, cumulative = -0.00031167859
ExecutionTime = 64.08 s  ClockTime = 68 s

Time = 138

smoothSolver:  Solving for Ux, Initial residual = 0.0029986833, Final residual = 0.00021729687, No Iterations 3
smoothSolver:  Solving for Uy, Initial residual = 0.012538307, Final residual = 0.00089139779, No Iterations 3
GAMG:  Solving for p, Initial residual = 0.0014165587, Final residual = 0.00011326642, No Iterations 4
time step continuity errors : sum local = 2.8708033e-06, global = 8.4543728e-08, cumulative = -0.00031159405
ExecutionTime = 64.51 s  ClockTime = 68 s

Time = 139

smoothSolver:  Solving for Ux, Initial residual = 0.0029994724, Final residual = 0.00021739141, No Iterations 3
smoothSolver:  Solving for Uy, Initial residual = 0.012484729, Final residual = 0.00088726581, No Iterations 3
GAMG:  Solving for p, Initial residual = 0.0014099786, Final residual = 0.00011166748, No Iterations 4
time step continuity errors : sum local = 2.8201828e-06, global = 7.5530643e-08, cumulative = -0.00031151852
ExecutionTime = 64.95 s  ClockTime = 69 s

Time = 140

smoothSolver:  Solving for Ux, Initial residual = 0.0030002271, Final residual = 0.00021747719, No Iterations 3
smoothSolver:  Solving for Uy, Initial residual = 0.012432562, Final residual = 0.00088324225, No Iterations 3
GAMG:  Solving for p, Initial residual = 0.0014031675, Final residual = 0.0001102269, No Iterations 4
time step continuity errors : sum local = 2.7735932e-06, global = 6.5448822e-08, cumulative = -0.00031145307
ExecutionTime = 65.39 s  ClockTime = 69 s

Time = 141

smoothSolver:  Solving for Ux, Initial residual = 0.0030009393, Final residual = 0.00021755376, No Iterations 3
smoothSolver:  Solving for Uy, Initial residual = 0.012382056, Final residual = 0.00087934201, No Iterations 3
GAMG:  Solving for p, Initial residual = 0.0013961712, Final residual = 0.00010893821, No Iterations 4
time step continuity errors : sum local = 2.7308121e-06, global = 5.4574034e-08, cumulative = -0.00031139849
ExecutionTime = 65.83 s  ClockTime = 69 s

Time = 142

smoothSolver:  Solving for Ux, Initial residual = 0.003001606, Final residual = 0.00021762147, No Iterations 3
smoothSolver:  Solving for Uy, Initial residual = 0.012333458, Final residual = 0.00087559908, No Iterations 3
GAMG:  Solving for p, Initial residual = 0.0013893418, Final residual = 0.00010785415, No Iterations 4
time step continuity errors : sum local = 2.6931199e-06, global = 4.3344888e-08, cumulative = -0.00031135515
ExecutionTime = 66.25 s  ClockTime = 70 s

Time = 143

smoothSolver:  Solving for Ux, Initial residual = 0.0030022062, Final residual = 0.00021767861, No Iterations 3
smoothSolver:  Solving for Uy, Initial residual = 0.012286961, Final residual = 0.00087201886, No Iterations 3
GAMG:  Solving for p, Initial residual = 0.0013832685, Final residual = 0.00010707562, No Iterations 4
time step continuity errors : sum local = 2.6629796e-06, global = 3.2336197e-08, cumulative = -0.00031132281
ExecutionTime = 66.69 s  ClockTime = 70 s

Time = 144

smoothSolver:  Solving for Ux, Initial residual = 0.0030027394, Final residual = 0.00021772664, No Iterations 3
smoothSolver:  Solving for Uy, Initial residual = 0.012242815, Final residual = 0.00086861647, No Iterations 3
GAMG:  Solving for p, Initial residual = 0.0013791223, Final residual = 0.00010669552, No Iterations 4
time step continuity errors : sum local = 2.6426167e-06, global = 2.2206467e-08, cumulative = -0.00031130061
ExecutionTime = 67.12 s  ClockTime = 71 s

Time = 145

smoothSolver:  Solving for Ux, Initial residual = 0.0030031923, Final residual = 0.00021776297, No Iterations 3
smoothSolver:  Solving for Uy, Initial residual = 0.012201069, Final residual = 0.00086539668, No Iterations 3
GAMG:  Solving for p, Initial residual = 0.0013759147, Final residual = 0.00010679253, No Iterations 4
time step continuity errors : sum local = 2.6338562e-06, global = 1.3696312e-08, cumulative = -0.00031128691
ExecutionTime = 67.56 s  ClockTime = 71 s

Time = 146

smoothSolver:  Solving for Ux, Initial residual = 0.0030035244, Final residual = 0.00021778345, No Iterations 3
smoothSolver:  Solving for Uy, Initial residual = 0.012161907, Final residual = 0.00086235851, No Iterations 3
GAMG:  Solving for p, Initial residual = 0.001373812, Final residual = 0.00010742464, No Iterations 4
time step continuity errors : sum local = 2.6379639e-06, global = 7.6273519e-09, cumulative = -0.00031127928
ExecutionTime = 68 s  ClockTime = 72 s

Time = 147

smoothSolver:  Solving for Ux, Initial residual = 0.0030037029, Final residual = 0.00021778705, No Iterations 3
smoothSolver:  Solving for Uy, Initial residual = 0.012125568, Final residual = 0.00085950624, No Iterations 3
GAMG:  Solving for p, Initial residual = 0.0013734388, Final residual = 0.00010861447, No Iterations 4
time step continuity errors : sum local = 2.6553249e-06, global = 4.8101958e-09, cumulative = -0.00031127447
ExecutionTime = 68.45 s  ClockTime = 72 s

Time = 148

smoothSolver:  Solving for Ux, Initial residual = 0.0030036962, Final residual = 0.00021777296, No Iterations 3
smoothSolver:  Solving for Uy, Initial residual = 0.012091797, Final residual = 0.0008568347, No Iterations 3
GAMG:  Solving for p, Initial residual = 0.0013733646, Final residual = 0.00011035321, No Iterations 4
time step continuity errors : sum local = 2.6855587e-06, global = 5.8796792e-09, cumulative = -0.00031126859
ExecutionTime = 68.89 s  ClockTime = 73 s

Time = 149

smoothSolver:  Solving for Ux, Initial residual = 0.003003497, Final residual = 0.00021773925, No Iterations 3
smoothSolver:  Solving for Uy, Initial residual = 0.012061032, Final residual = 0.00085435128, No Iterations 3
GAMG:  Solving for p, Initial residual = 0.0013745013, Final residual = 0.00011268674, No Iterations 4
time step continuity errors : sum local = 2.7295789e-06, global = 1.1159067e-08, cumulative = -0.00031125743
ExecutionTime = 69.33 s  ClockTime = 73 s

Time = 150

smoothSolver:  Solving for Ux, Initial residual = 0.0030031173, Final residual = 0.00021768627, No Iterations 3
smoothSolver:  Solving for Uy, Initial residual = 0.012032904, Final residual = 0.00085205194, No Iterations 3
GAMG:  Solving for p, Initial residual = 0.0013760558, Final residual = 0.00011565412, No Iterations 4
time step continuity errors : sum local = 2.7880851e-06, global = 2.0471139e-08, cumulative = -0.00031123696
ExecutionTime = 69.78 s  ClockTime = 74 s

Time = 151

smoothSolver:  Solving for Ux, Initial residual = 0.0030025815, Final residual = 0.00021761986, No Iterations 3
smoothSolver:  Solving for Uy, Initial residual = 0.01200783, Final residual = 0.00084992837, No Iterations 3
GAMG:  Solving for p, Initial residual = 0.0013906345, Final residual = 0.00011929, No Iterations 4
time step continuity errors : sum local = 2.8616602e-06, global = 3.312877e-08, cumulative = -0.00031120383
ExecutionTime = 70.22 s  ClockTime = 75 s

Time = 152

smoothSolver:  Solving for Ux, Initial residual = 0.0030019521, Final residual = 0.00021753862, No Iterations 3
smoothSolver:  Solving for Uy, Initial residual = 0.011985203, Final residual = 0.00084796821, No Iterations 3
GAMG:  Solving for p, Initial residual = 0.0014067798, Final residual = 0.00012359264, No Iterations 4
time step continuity errors : sum local = 2.9499883e-06, global = 4.8166498e-08, cumulative = -0.00031115567
ExecutionTime = 70.65 s  ClockTime = 75 s

Time = 153

smoothSolver:  Solving for Ux, Initial residual = 0.0030012635, Final residual = 0.0002174442, No Iterations 3
smoothSolver:  Solving for Uy, Initial residual = 0.011964898, Final residual = 0.00084615051, No Iterations 3
GAMG:  Solving for p, Initial residual = 0.0014263661, Final residual = 0.00012853796, No Iterations 4
time step continuity errors : sum local = 3.0522082e-06, global = 6.4646516e-08, cumulative = -0.00031109102
ExecutionTime = 71.09 s  ClockTime = 75 s

Time = 154

smoothSolver:  Solving for Ux, Initial residual = 0.0030005157, Final residual = 0.0002173384, No Iterations 3
smoothSolver:  Solving for Uy, Initial residual = 0.011946626, Final residual = 0.00084444708, No Iterations 3
GAMG:  Solving for p, Initial residual = 0.0014497149, Final residual = 0.00013404645, No Iterations 4
time step continuity errors : sum local = 3.166155e-06, global = 8.1848779e-08, cumulative = -0.00031100917
ExecutionTime = 71.53 s  ClockTime = 76 s

Time = 155

smoothSolver:  Solving for Ux, Initial residual = 0.0029996848, Final residual = 0.00021722162, No Iterations 3
smoothSolver:  Solving for Uy, Initial residual = 0.01193001, Final residual = 0.00084284874, No Iterations 3
GAMG:  Solving for p, Initial residual = 0.0014736307, Final residual = 0.00014002184, No Iterations 4
time step continuity errors : sum local = 3.2893103e-06, global = 9.9306016e-08, cumulative = -0.00031090987
ExecutionTime = 71.97 s  ClockTime = 76 s

Time = 156

smoothSolver:  Solving for Ux, Initial residual = 0.0029988053, Final residual = 0.00021709482, No Iterations 3
smoothSolver:  Solving for Uy, Initial residual = 0.011915071, Final residual = 0.00084133254, No Iterations 3
GAMG:  Solving for p, Initial residual = 0.0014976529, Final residual = 0.00014637455, No Iterations 4
time step continuity errors : sum local = 3.4193584e-06, global = 1.1673323e-07, cumulative = -0.00031079313
ExecutionTime = 72.39 s  ClockTime = 77 s

Time = 157

smoothSolver:  Solving for Ux, Initial residual = 0.0029978715, Final residual = 0.00021695815, No Iterations 3
smoothSolver:  Solving for Uy, Initial residual = 0.011901427, Final residual = 0.00083989165, No Iterations 3
GAMG:  Solving for p, Initial residual = 0.0015232804, Final residual = 0.00010359965, No Iterations 5
time step continuity errors : sum local = 2.4062699e-06, global = 1.7552951e-07, cumulative = -0.0003106176
ExecutionTime = 72.86 s  ClockTime = 77 s

Time = 158

smoothSolver:  Solving for Ux, Initial residual = 0.0029973614, Final residual = 0.00021682291, No Iterations 3
smoothSolver:  Solving for Uy, Initial residual = 0.011887842, Final residual = 0.00083844084, No Iterations 3
GAMG:  Solving for p, Initial residual = 0.0015518709, Final residual = 9.6066091e-05, No Iterations 4
time step continuity errors : sum local = 2.2089387e-06, global = 1.4901067e-07, cumulative = -0.00031046859
ExecutionTime = 73.3 s  ClockTime = 78 s

Time = 159

smoothSolver:  Solving for Ux, Initial residual = 0.0029952788, Final residual = 0.00021662227, No Iterations 3
smoothSolver:  Solving for Uy, Initial residual = 0.011878979, Final residual = 0.00083728269, No Iterations 3
GAMG:  Solving for p, Initial residual = 0.0015681815, Final residual = 0.00015220693, No Iterations 4
time step continuity errors : sum local = 3.4928421e-06, global = 1.9010237e-07, cumulative = -0.00031027849
ExecutionTime = 73.73 s  ClockTime = 78 s

Time = 160

smoothSolver:  Solving for Ux, Initial residual = 0.0029948276, Final residual = 0.0002165036, No Iterations 3
smoothSolver:  Solving for Uy, Initial residual = 0.011866415, Final residual = 0.0008358811, No Iterations 3
GAMG:  Solving for p, Initial residual = 0.0015910599, Final residual = 0.00011666914, No Iterations 5
time step continuity errors : sum local = 2.6659215e-06, global = 1.5586336e-07, cumulative = -0.00031012263
ExecutionTime = 74.19 s  ClockTime = 78 s

Time = 161

smoothSolver:  Solving for Ux, Initial residual = 0.0029947664, Final residual = 0.00021638217, No Iterations 3
smoothSolver:  Solving for Uy, Initial residual = 0.011854859, Final residual = 0.00083450987, No Iterations 3
[...]
ExecutionTime = 393.27 s  ClockTime = 402 s

Time = 832

smoothSolver:  Solving for Ux, Initial residual = 7.9445819e-06, Final residual = 5.489027e-07, No Iterations 3
smoothSolver:  Solving for Uy, Initial residual = 1.7901519e-05, Final residual = 1.2866314e-06, No Iterations 3
GAMG:  Solving for p, Initial residual = 3.8805853e-06, Final residual = 8.2194404e-07, No Iterations 1
time step continuity errors : sum local = 3.6475937e-09, global = -3.9449613e-10, cumulative = -0.00029802344
ExecutionTime = 393.64 s  ClockTime = 403 s

Time = 833

smoothSolver:  Solving for Ux, Initial residual = 7.8070603e-06, Final residual = 5.3950059e-07, No Iterations 3
smoothSolver:  Solving for Uy, Initial residual = 1.7686355e-05, Final residual = 1.2710695e-06, No Iterations 3
GAMG:  Solving for p, Initial residual = 4.338918e-06, Final residual = 8.4244961e-07, No Iterations 4
time step continuity errors : sum local = 3.7385935e-09, global = -1.9438254e-10, cumulative = -0.00029802363
ExecutionTime = 394.06 s  ClockTime = 403 s

Time = 834

smoothSolver:  Solving for Ux, Initial residual = 7.6961365e-06, Final residual = 5.3161959e-07, No Iterations 3
smoothSolver:  Solving for Uy, Initial residual = 1.741927e-05, Final residual = 1.2510959e-06, No Iterations 3
GAMG:  Solving for p, Initial residual = 4.078399e-06, Final residual = 9.0009105e-07, No Iterations 1
time step continuity errors : sum local = 3.9948276e-09, global = -9.7868943e-10, cumulative = -0.00029802461
ExecutionTime = 394.42 s  ClockTime = 403 s

Time = 835

smoothSolver:  Solving for Ux, Initial residual = 7.5626158e-06, Final residual = 5.2249295e-07, No Iterations 3
smoothSolver:  Solving for Uy, Initial residual = 1.720879e-05, Final residual = 1.2359167e-06, No Iterations 3
GAMG:  Solving for p, Initial residual = 4.4014534e-06, Final residual = 9.0982367e-07, No Iterations 3
time step continuity errors : sum local = 4.0380257e-09, global = -1.1343094e-09, cumulative = -0.00029802574
ExecutionTime = 394.84 s  ClockTime = 404 s

Time = 836

smoothSolver:  Solving for Ux, Initial residual = 7.4486337e-06, Final residual = 5.1448738e-07, No Iterations 3
smoothSolver:  Solving for Uy, Initial residual = 1.698178e-05, Final residual = 1.2191189e-06, No Iterations 3
GAMG:  Solving for p, Initial residual = 3.9666052e-06, Final residual = 9.9861605e-07, No Iterations 1
time step continuity errors : sum local = 4.4324671e-09, global = -1.4128182e-09, cumulative = -0.00029802716
ExecutionTime = 395.2 s  ClockTime = 404 s

Time = 837

smoothSolver:  Solving for Ux, Initial residual = 7.3197108e-06, Final residual = 5.0566934e-07, No Iterations 3
smoothSolver:  Solving for Uy, Initial residual = 1.6771804e-05, Final residual = 1.2039772e-06, No Iterations 3
GAMG:  Solving for p, Initial residual = 4.3267977e-06, Final residual = 6.9211801e-07, No Iterations 5
time step continuity errors : sum local = 3.0720477e-09, global = -4.274897e-10, cumulative = -0.00029802758
ExecutionTime = 395.65 s  ClockTime = 405 s

Time = 838

smoothSolver:  Solving for Ux, Initial residual = 7.2418238e-06, Final residual = 4.9976317e-07, No Iterations 3
smoothSolver:  Solving for Uy, Initial residual = 1.6523642e-05, Final residual = 1.1855767e-06, No Iterations 3
GAMG:  Solving for p, Initial residual = 3.6261031e-06, Final residual = 8.2367938e-07, No Iterations 1
time step continuity errors : sum local = 3.6568302e-09, global = 4.0109099e-10, cumulative = -0.00029802718
ExecutionTime = 396.01 s  ClockTime = 405 s

Time = 839

smoothSolver:  Solving for Ux, Initial residual = 7.1156042e-06, Final residual = 4.9115779e-07, No Iterations 3
smoothSolver:  Solving for Uy, Initial residual = 1.6319526e-05, Final residual = 1.1708742e-06, No Iterations 3
GAMG:  Solving for p, Initial residual = 3.9944204e-06, Final residual = 8.4196175e-07, No Iterations 3
time step continuity errors : sum local = 3.7379968e-09, global = -1.0429201e-10, cumulative = -0.00029802729
ExecutionTime = 396.44 s  ClockTime = 405 s

Time = 840

smoothSolver:  Solving for Ux, Initial residual = 6.9937814e-06, Final residual = 4.8281682e-07, No Iterations 3
smoothSolver:  Solving for Uy, Initial residual = 1.6067879e-05, Final residual = 1.1522131e-06, No Iterations 3
GAMG:  Solving for p, Initial residual = 3.5803586e-06, Final residual = 7.7286441e-07, No Iterations 1
time step continuity errors : sum local = 3.4312472e-09, global = -1.2217544e-09, cumulative = -0.00029802851
ExecutionTime = 396.8 s  ClockTime = 406 s

Time = 841

smoothSolver:  Solving for Ux, Initial residual = 6.8722677e-06, Final residual = 4.7452061e-07, No Iterations 3
smoothSolver:  Solving for Uy, Initial residual = 1.5867169e-05, Final residual = 1.1377946e-06, No Iterations 3
GAMG:  Solving for p, Initial residual = 4.0586573e-06, Final residual = 8.2598987e-07, No Iterations 3
time step continuity errors : sum local = 3.6671097e-09, global = -1.138075e-09, cumulative = -0.00029802965
ExecutionTime = 397.22 s  ClockTime = 406 s

Time = 842

smoothSolver:  Solving for Ux, Initial residual = 6.7723007e-06, Final residual = 4.674302e-07, No Iterations 3
smoothSolver:  Solving for Uy, Initial residual = 1.5640431e-05, Final residual = 1.1210205e-06, No Iterations 3
GAMG:  Solving for p, Initial residual = 3.7870948e-06, Final residual = 7.5760272e-07, No Iterations 3
time step continuity errors : sum local = 3.363824e-09, global = -5.1632174e-10, cumulative = -0.00029803016
ExecutionTime = 397.63 s  ClockTime = 407 s

Time = 843

smoothSolver:  Solving for Ux, Initial residual = 6.6829386e-06, Final residual = 4.6099854e-07, No Iterations 3
smoothSolver:  Solving for Uy, Initial residual = 1.5432809e-05, Final residual = 1.1060281e-06, No Iterations 3
GAMG:  Solving for p, Initial residual = 3.5405851e-06, Final residual = 8.2555438e-07, No Iterations 1
time step continuity errors : sum local = 3.6660215e-09, global = -2.5334666e-10, cumulative = -0.00029803042
ExecutionTime = 397.98 s  ClockTime = 407 s

Time = 844

smoothSolver:  Solving for Ux, Initial residual = 6.5662226e-06, Final residual = 4.5305896e-07, No Iterations 3
smoothSolver:  Solving for Uy, Initial residual = 1.5239455e-05, Final residual = 1.0921497e-06, No Iterations 3
GAMG:  Solving for p, Initial residual = 3.8160607e-06, Final residual = 9.8935214e-07, No Iterations 4
time step continuity errors : sum local = 4.3933961e-09, global = 1.3514614e-10, cumulative = -0.00029803028
ExecutionTime = 398.44 s  ClockTime = 407 s

Time = 845

smoothSolver:  Solving for Ux, Initial residual = 6.4701723e-06, Final residual = 4.4631435e-07, No Iterations 3
smoothSolver:  Solving for Uy, Initial residual = 1.5019343e-05, Final residual = 1.0757145e-06, No Iterations 3
GAMG:  Solving for p, Initial residual = 3.3341913e-06, Final residual = 6.5279135e-07, No Iterations 1
time step continuity errors : sum local = 2.8990751e-09, global = -6.981734e-10, cumulative = -0.00029803098
ExecutionTime = 398.8 s  ClockTime = 408 s

Time = 846

smoothSolver:  Solving for Ux, Initial residual = 6.3571101e-06, Final residual = 4.3860233e-07, No Iterations 3
smoothSolver:  Solving for Uy, Initial residual = 1.4827986e-05, Final residual = 1.0620193e-06, No Iterations 3
GAMG:  Solving for p, Initial residual = 3.570931e-06, Final residual = 6.1278122e-07, No Iterations 3
time step continuity errors : sum local = 2.721389e-09, global = -9.14182e-10, cumulative = -0.00029803189
ExecutionTime = 399.22 s  ClockTime = 409 s

Time = 847

smoothSolver:  Solving for Ux, Initial residual = 6.2573105e-06, Final residual = 4.316009e-07, No Iterations 3
smoothSolver:  Solving for Uy, Initial residual = 1.4577972e-05, Final residual = 1.0437195e-06, No Iterations 3
GAMG:  Solving for p, Initial residual = 3.2864632e-06, Final residual = 7.6137772e-07, No Iterations 1
time step continuity errors : sum local = 3.3815085e-09, global = -1.2653908e-09, cumulative = -0.00029803316
ExecutionTime = 399.59 s  ClockTime = 409 s

Time = 848

smoothSolver:  Solving for Ux, Initial residual = 6.1477462e-06, Final residual = 4.2413458e-07, No Iterations 3
smoothSolver:  Solving for Uy, Initial residual = 1.4393029e-05, Final residual = 1.0304931e-06, No Iterations 3
GAMG:  Solving for p, Initial residual = 3.6718913e-06, Final residual = 5.712725e-07, No Iterations 5
time step continuity errors : sum local = 2.5371979e-09, global = -3.5068319e-10, cumulative = -0.00029803351
ExecutionTime = 400.05 s  ClockTime = 409 s

Time = 849

smoothSolver:  Solving for Ux, Initial residual = 6.0794302e-06, Final residual = 4.1905473e-07, No Iterations 3
smoothSolver:  Solving for Uy, Initial residual = 1.422594e-05, Final residual = 1.0180892e-06, No Iterations 3
GAMG:  Solving for p, Initial residual = 3.0988177e-06, Final residual = 7.1453836e-07, No Iterations 1
time step continuity errors : sum local = 3.1740656e-09, global = 3.4306561e-10, cumulative = -0.00029803317
ExecutionTime = 400.41 s  ClockTime = 410 s

Time = 850

smoothSolver:  Solving for Ux, Initial residual = 5.9725975e-06, Final residual = 4.117932e-07, No Iterations 3
smoothSolver:  Solving for Uy, Initial residual = 1.4042684e-05, Final residual = 1.0049828e-06, No Iterations 3
GAMG:  Solving for p, Initial residual = 3.3275295e-06, Final residual = 3.2002221e-07, No Iterations 5
time step continuity errors : sum local = 1.4215771e-09, global = -1.9081348e-10, cumulative = -0.00029803336
ExecutionTime = 400.86 s  ClockTime = 410 s

Time = 851

smoothSolver:  Solving for Ux, Initial residual = 5.8835181e-06, Final residual = 9.8638432e-07, No Iterations 2
smoothSolver:  Solving for Uy, Initial residual = 1.3792736e-05, Final residual = 9.8660725e-07, No Iterations 3
GAMG:  Solving for p, Initial residual = 6.5859549e-06, Final residual = 6.1486287e-07, No Iterations 5
time step continuity errors : sum local = 2.7314717e-09, global = 2.0038494e-11, cumulative = -0.00029803334
ExecutionTime = 401.31 s  ClockTime = 411 s

Time = 852

smoothSolver:  Solving for Ux, Initial residual = 5.7886219e-06, Final residual = 9.6990814e-07, No Iterations 2
smoothSolver:  Solving for Uy, Initial residual = 1.2935491e-05, Final residual = 9.2352044e-07, No Iterations 3
GAMG:  Solving for p, Initial residual = 3.2968045e-06, Final residual = 7.3484222e-07, No Iterations 3
time step continuity errors : sum local = 3.2644467e-09, global = -1.462475e-10, cumulative = -0.00029803348
ExecutionTime = 401.72 s  ClockTime = 411 s

Time = 853

smoothSolver:  Solving for Ux, Initial residual = 5.6940194e-06, Final residual = 9.5414809e-07, No Iterations 2
smoothSolver:  Solving for Uy, Initial residual = 1.268847e-05, Final residual = 9.0562257e-07, No Iterations 3
GAMG:  Solving for p, Initial residual = 3.0215749e-06, Final residual = 7.1950598e-07, No Iterations 1
time step continuity errors : sum local = 3.1963252e-09, global = -9.533344e-10, cumulative = -0.00029803444
ExecutionTime = 402.06 s  ClockTime = 411 s

Time = 854

smoothSolver:  Solving for Ux, Initial residual = 5.6005115e-06, Final residual = 9.3866816e-07, No Iterations 2
smoothSolver:  Solving for Uy, Initial residual = 1.2514162e-05, Final residual = 8.932104e-07, No Iterations 3
GAMG:  Solving for p, Initial residual = 3.4649519e-06, Final residual = 7.434457e-07, No Iterations 3
time step continuity errors : sum local = 3.3026765e-09, global = -1.0403417e-09, cumulative = -0.00029803548
ExecutionTime = 402.47 s  ClockTime = 412 s

Time = 855

smoothSolver:  Solving for Ux, Initial residual = 5.5180235e-06, Final residual = 9.2476491e-07, No Iterations 2
smoothSolver:  Solving for Uy, Initial residual = 1.231944e-05, Final residual = 8.7878961e-07, No Iterations 3
GAMG:  Solving for p, Initial residual = 3.0425493e-06, Final residual = 7.4764254e-07, No Iterations 1
time step continuity errors : sum local = 3.321482e-09, global = -1.3762114e-09, cumulative = -0.00029803685
ExecutionTime = 402.83 s  ClockTime = 412 s

Time = 856

smoothSolver:  Solving for Ux, Initial residual = 5.427079e-06, Final residual = 9.096874e-07, No Iterations 2
smoothSolver:  Solving for Uy, Initial residual = 1.2150688e-05, Final residual = 8.6681494e-07, No Iterations 3
GAMG:  Solving for p, Initial residual = 3.1740418e-06, Final residual = 5.555956e-07, No Iterations 5
time step continuity errors : sum local = 2.4682982e-09, global = -3.8178375e-10, cumulative = -0.00029803724
ExecutionTime = 403.28 s  ClockTime = 413 s

Time = 857

smoothSolver:  Solving for Ux, Initial residual = 5.3741828e-06, Final residual = 9.0028368e-07, No Iterations 2
smoothSolver:  Solving for Uy, Initial residual = 1.2010534e-05, Final residual = 8.5663186e-07, No Iterations 3
GAMG:  Solving for p, Initial residual = 2.8451398e-06, Final residual = 6.7286811e-07, No Iterations 1
time step continuity errors : sum local = 2.9897893e-09, global = 2.6374519e-10, cumulative = -0.00029803697
ExecutionTime = 403.64 s  ClockTime = 413 s

Time = 858

smoothSolver:  Solving for Ux, Initial residual = 5.2851832e-06, Final residual = 8.8555467e-07, No Iterations 2
smoothSolver:  Solving for Uy, Initial residual = 1.1845373e-05, Final residual = 8.4490592e-07, No Iterations 3
GAMG:  Solving for p, Initial residual = 2.9960339e-06, Final residual = 7.4443086e-07, No Iterations 4
time step continuity errors : sum local = 3.3077682e-09, global = -1.5438689e-11, cumulative = -0.00029803699
ExecutionTime = 404.06 s  ClockTime = 413 s

Time = 859

smoothSolver:  Solving for Ux, Initial residual = 5.2139683e-06, Final residual = 8.734959e-07, No Iterations 2
smoothSolver:  Solving for Uy, Initial residual = 1.1655813e-05, Final residual = 8.3104845e-07, No Iterations 3
GAMG:  Solving for p, Initial residual = 2.7358584e-06, Final residual = 5.3771942e-07, No Iterations 1
time step continuity errors : sum local = 2.3894571e-09, global = -1.0001784e-09, cumulative = -0.00029803799
ExecutionTime = 404.41 s  ClockTime = 414 s

Time = 860

smoothSolver:  Solving for Ux, Initial residual = 5.1280529e-06, Final residual = 8.5926345e-07, No Iterations 2
smoothSolver:  Solving for Uy, Initial residual = 1.1496683e-05, Final residual = 8.1978215e-07, No Iterations 3
GAMG:  Solving for p, Initial residual = 2.9940766e-06, Final residual = 5.6836298e-07, No Iterations 3
time step continuity errors : sum local = 2.5256297e-09, global = -9.274077e-10, cumulative = -0.00029803891
ExecutionTime = 404.81 s  ClockTime = 414 s

Time = 861

smoothSolver:  Solving for Ux, Initial residual = 5.0534925e-06, Final residual = 8.4667248e-07, No Iterations 2
smoothSolver:  Solving for Uy, Initial residual = 1.1355833e-05, Final residual = 8.0959895e-07, No Iterations 3
GAMG:  Solving for p, Initial residual = 2.8629878e-06, Final residual = 8.5084808e-07, No Iterations 1
time step continuity errors : sum local = 3.7811134e-09, global = -1.1710878e-09, cumulative = -0.00029804009
ExecutionTime = 405.17 s  ClockTime = 415 s

Time = 862

smoothSolver:  Solving for Ux, Initial residual = 4.9704191e-06, Final residual = 8.3288408e-07, No Iterations 2
smoothSolver:  Solving for Uy, Initial residual = 1.1196209e-05, Final residual = 7.9827062e-07, No Iterations 3
GAMG:  Solving for p, Initial residual = 3.127878e-06, Final residual = 9.1982434e-07, No Iterations 3
time step continuity errors : sum local = 4.0876471e-09, global = -1.0269401e-09, cumulative = -0.00029804111
ExecutionTime = 405.58 s  ClockTime = 415 s

Time = 863

smoothSolver:  Solving for Ux, Initial residual = 4.9068098e-06, Final residual = 8.220275e-07, No Iterations 2
smoothSolver:  Solving for Uy, Initial residual = 1.1036027e-05, Final residual = 7.8643301e-07, No Iterations 3
GAMG:  Solving for p, Initial residual = 2.8646861e-06, Final residual = 8.4587262e-07, No Iterations 1
time step continuity errors : sum local = 3.7593138e-09, global = -1.1104802e-09, cumulative = -0.00029804222
ExecutionTime = 405.92 s  ClockTime = 415 s

Time = 864

smoothSolver:  Solving for Ux, Initial residual = 4.8260024e-06, Final residual = 8.0861343e-07, No Iterations 2
smoothSolver:  Solving for Uy, Initial residual = 1.0881067e-05, Final residual = 7.754713e-07, No Iterations 3
GAMG:  Solving for p, Initial residual = 2.8800124e-06, Final residual = 8.6449851e-07, No Iterations 3
time step continuity errors : sum local = 3.8421031e-09, global = -8.3587831e-10, cumulative = -0.00029804306
ExecutionTime = 406.33 s  ClockTime = 416 s

Time = 865

smoothSolver:  Solving for Ux, Initial residual = 4.7673995e-06, Final residual = 7.9851489e-07, No Iterations 2
smoothSolver:  Solving for Uy, Initial residual = 1.0738493e-05, Final residual = 7.653069e-07, No Iterations 3
GAMG:  Solving for p, Initial residual = 2.6859089e-06, Final residual = 7.8842807e-07, No Iterations 1
time step continuity errors : sum local = 3.5043808e-09, global = -7.6572189e-10, cumulative = -0.00029804382
ExecutionTime = 406.7 s  ClockTime = 416 s

Time = 866

smoothSolver:  Solving for Ux, Initial residual = 4.6889764e-06, Final residual = 7.8551429e-07, No Iterations 2
smoothSolver:  Solving for Uy, Initial residual = 1.0586808e-05, Final residual = 7.5453747e-07, No Iterations 3
GAMG:  Solving for p, Initial residual = 2.8265312e-06, Final residual = 8.9967908e-07, No Iterations 3
time step continuity errors : sum local = 3.9988737e-09, global = -9.4420753e-10, cumulative = -0.00029804477
ExecutionTime = 407.09 s  ClockTime = 417 s

Time = 867

smoothSolver:  Solving for Ux, Initial residual = 4.6287043e-06, Final residual = 7.7522499e-07, No Iterations 2
smoothSolver:  Solving for Uy, Initial residual = 1.041821e-05, Final residual = 7.420475e-07, No Iterations 3
GAMG:  Solving for p, Initial residual = 2.6134191e-06, Final residual = 6.5175226e-07, No Iterations 1
time step continuity errors : sum local = 2.8971199e-09, global = -1.1682459e-09, cumulative = -0.00029804594
ExecutionTime = 407.45 s  ClockTime = 417 s

Time = 868

smoothSolver:  Solving for Ux, Initial residual = 4.5524443e-06, Final residual = 7.6258643e-07, No Iterations 2
smoothSolver:  Solving for Uy, Initial residual = 1.0275017e-05, Final residual = 7.3194003e-07, No Iterations 3
GAMG:  Solving for p, Initial residual = 2.6785517e-06, Final residual = 6.4131591e-07, No Iterations 5
time step continuity errors : sum local = 2.8507388e-09, global = -7.4468424e-10, cumulative = -0.00029804668
ExecutionTime = 407.92 s  ClockTime = 417 s

Time = 869

smoothSolver:  Solving for Ux, Initial residual = 4.502022e-06, Final residual = 7.5379789e-07, No Iterations 2
smoothSolver:  Solving for Uy, Initial residual = 1.0161386e-05, Final residual = 7.2391194e-07, No Iterations 3
GAMG:  Solving for p, Initial residual = 2.3355669e-06, Final residual = 4.989153e-07, No Iterations 1
time step continuity errors : sum local = 2.2180195e-09, global = -7.1950582e-10, cumulative = -0.0002980474
ExecutionTime = 408.28 s  ClockTime = 418 s

Time = 870

smoothSolver:  Solving for Ux, Initial residual = 4.4280758e-06, Final residual = 7.415545e-07, No Iterations 2
smoothSolver:  Solving for Uy, Initial residual = 1.0021759e-05, Final residual = 7.1403093e-07, No Iterations 3
GAMG:  Solving for p, Initial residual = 2.5946969e-06, Final residual = 9.5091083e-07, No Iterations 3
time step continuity errors : sum local = 4.2274521e-09, global = -7.1296185e-10, cumulative = -0.00029804811
ExecutionTime = 408.69 s  ClockTime = 418 s

Time = 871

smoothSolver:  Solving for Ux, Initial residual = 4.3649085e-06, Final residual = 7.3090565e-07, No Iterations 2
smoothSolver:  Solving for Uy, Initial residual = 9.8584147e-06, Final residual = 7.0195302e-07, No Iterations 3
GAMG:  Solving for p, Initial residual = 2.5196639e-06, Final residual = 5.785202e-07, No Iterations 1
time step continuity errors : sum local = 2.5720356e-09, global = -1.05656e-09, cumulative = -0.00029804917
ExecutionTime = 409.03 s  ClockTime = 418 s


SIMPLE solution converged in 871 iterations

End

